! Generated by BlenderFDS 6.0.0 on Blender 3.2.0 Beta
! Date: Sat, 21 May 2022, 18:50:25
! File: ···fds.verification/tests/MPI_export/bl/FM_Datacenter_High_C3H6_HA.blend

--- Case from Blender Scene: <FM_Datacenter_High_C3H6_HA> | View Layer: <ViewLayer>

&HEAD CHID='FM_Datacenter_High_C3H6_HA'
      TITLE='FM Datacenter Mockup High Speed Fan Propylene Hot Aisle ' /
&TIME T_BEGIN=-20.0 T_END=200.0 /
&REAC FUEL='PROPYLENE' SOOT_YIELD=0.095 /
&DUMP NFRAMES=22 DT_PART=5000.0 /

--- Free text from Blender Text: <New Text>

-- From: <FM_Datacenter_High_C3H6_HA.fds>
&RAMP ID='Propylene-RAMP' T=0 F=0 /
&RAMP ID='Propylene-RAMP' T=5 F=1 /
&BNDF QUANTITY='NORMAL VELOCITY' /
&HVAC ID='DO-Z' TYPE_ID='LEAK' VENT_ID='DO-Z' VENT2_ID='AMBIENT' AREA=0.00163 /
&HVAC ID='DO+Z' TYPE_ID='LEAK' VENT_ID='DO+Z' VENT2_ID='AMBIENT' AREA=0.00163 /
&HVAC ID='DO-X' TYPE_ID='LEAK' VENT_ID='DO-X' VENT2_ID='AMBIENT' AREA=0.00152 /
&HVAC ID='DO=X' TYPE_ID='LEAK' VENT_ID='DO=X' VENT2_ID='AMBIENT' AREA=0.00152 /
&HVAC ID='DO+X' TYPE_ID='LEAK' VENT_ID='DO+X' VENT2_ID='AMBIENT' AREA=0.00152 /
&HVAC ID='DU+Z' TYPE_ID='LEAK' VENT_ID='DU+Z' VENT2_ID='AMBIENT' AREA=0.00244 /
&HVAC ID='DU-Z' TYPE_ID='LEAK' VENT_ID='DU-Z' VENT2_ID='AMBIENT' AREA=0.00244 /
&HVAC ID='DU-X' TYPE_ID='LEAK' VENT_ID='DU+X' VENT2_ID='AMBIENT' AREA=0.00046 /
&HVAC ID='DU+X' TYPE_ID='LEAK' VENT_ID='DU-X' VENT2_ID='AMBIENT' AREA=0.00046 /
&MATL ID='ALUMINUM' DENSITY=2700.0 CONDUCTIVITY=170.0 SPECIFIC_HEAT=0.90 /
&MATL ID='STEEL' DENSITY=7850.0 CONDUCTIVITY=48.0 SPECIFIC_HEAT=0.48 /
&MATL ID='GYPSUM' DENSITY=790.0 CONDUCTIVITY=0.17 SPECIFIC_HEAT=1.1 /
&MATL ID='PLEXI' DENSITY=1190.0 CONDUCTIVITY=0.10 SPECIFIC_HEAT=0.810 /
&MATL ID='WOOD' DENSITY=580.0 CONDUCTIVITY=0.10 SPECIFIC_HEAT=0.680 /
&PART ID='IX-SCREEN' DRAG_LAW='SCREEN' FREE_AREA_FRACTION=0.50 ORIENTATION=1,0,0
      SURF_ID='I-SCREEN' STATIC=T /
&PART ID='IY-SCREEN' DRAG_LAW='SCREEN' FREE_AREA_FRACTION=0.50 ORIENTATION=0,1,0
      SURF_ID='I-SCREEN' STATIC=T /
&PART ID='IZ-SCREEN' DRAG_LAW='SCREEN' FREE_AREA_FRACTION=0.50 ORIENTATION=0,0,1
      SURF_ID='I-SCREEN' STATIC=T /
&PART ID='FX-SCREEN' DRAG_LAW='SCREEN' FREE_AREA_FRACTION=0.54 ORIENTATION=1,0,0
      SURF_ID='F-SCREEN' STATIC=T /
&PART ID='FY-SCREEN' DRAG_LAW='SCREEN' FREE_AREA_FRACTION=0.54 ORIENTATION=0,1,0
      SURF_ID='F-SCREEN' STATIC=T /
&PART ID='FZ-SCREEN' DRAG_LAW='SCREEN' FREE_AREA_FRACTION=0.54 ORIENTATION=0,0,1
      SURF_ID='F-SCREEN' STATIC=T /
&PART ID='CX-SCREEN' DRAG_LAW='SCREEN' FREE_AREA_FRACTION=0.50 ORIENTATION=1,0,0
      SURF_ID='C-SCREEN' STATIC=T /
&PART ID='CY-SCREEN' DRAG_LAW='SCREEN' FREE_AREA_FRACTION=0.50 ORIENTATION=0,1,0
      SURF_ID='C-SCREEN' STATIC=T /
&PART ID='CZ-SCREEN' DRAG_LAW='SCREEN' FREE_AREA_FRACTION=0.50 ORIENTATION=0,0,1
      SURF_ID='C-SCREEN' STATIC=T /
&PART ID='RX-SCREEN' DRAG_LAW='SCREEN' FREE_AREA_FRACTION=0.50 ORIENTATION=1,0,0
      SURF_ID='R-SCREEN' STATIC=T /
&PART ID='RY-SCREEN' DRAG_LAW='SCREEN' FREE_AREA_FRACTION=0.50 ORIENTATION=0,1,0
      SURF_ID='R-SCREEN' STATIC=T /
&PART ID='RZ-SCREEN' DRAG_LAW='SCREEN' FREE_AREA_FRACTION=0.50 ORIENTATION=0,0,1
      SURF_ID='R-SCREEN' STATIC=T /
&PART ID='M-SCREEN' DRAG_LAW='SCREEN' FREE_AREA_FRACTION=0.36 ORIENTATION=1,0,0
      SURF_ID='M-SCREEN' STATIC=T /
&PART ID='MD-SCREEN' DRAG_LAW='SCREEN' FREE_AREA_FRACTION=0.36 ORIENTATION=0,1,0
      SURF_ID='M-SCREEN' STATIC=T /
&HVAC ID='L-1' TYPE_ID='LEAK' VENT_ID='V-1B' VENT2_ID='V-1T' AREA=0.00214 /
&HVAC ID='L-2' TYPE_ID='LEAK' VENT_ID='V-2B' VENT2_ID='V-2T' AREA=0.00214 /
&HVAC ID='L-3' TYPE_ID='LEAK' VENT_ID='V-3B' VENT2_ID='V-3T' AREA=0.00214 /
&HVAC ID='L-4' TYPE_ID='LEAK' VENT_ID='V-4B' VENT2_ID='V-4T' AREA=0.00214 /
&HVAC ID='L-5' TYPE_ID='LEAK' VENT_ID='V-5B' VENT2_ID='V-5T' AREA=0.00194 /
&HVAC ID='L-6' TYPE_ID='LEAK' VENT_ID='V-6B' VENT2_ID='V-6T' AREA=0.00214 /
&HVAC ID='L-7' TYPE_ID='LEAK' VENT_ID='V-7B' VENT2_ID='V-7T' AREA=0.00214 /
&HVAC ID='L-8' TYPE_ID='LEAK' VENT_ID='V-8B' VENT2_ID='V-8T' AREA=0.00214 /
&HVAC ID='L-9' TYPE_ID='LEAK' VENT_ID='V-9B' VENT2_ID='V-9T' AREA=0.00214 /
&HVAC ID='L-10' TYPE_ID='LEAK' VENT_ID='V-10B' VENT2_ID='V-10T' AREA=0.00214 /
&HVAC ID='L-11' TYPE_ID='LEAK' VENT_ID='V-11B' VENT2_ID='V-11T' AREA=0.00214 /
&HVAC ID='L-12' TYPE_ID='LEAK' VENT_ID='V-12B' VENT2_ID='V-12T' AREA=0.00214 /
&HVAC ID='L-13' TYPE_ID='LEAK' VENT_ID='V-13B' VENT2_ID='V-13T' AREA=0.00194 /
&HVAC ID='L-14' TYPE_ID='LEAK' VENT_ID='V-14B' VENT2_ID='V-14T' AREA=0.00214 /
&HVAC ID='L-15' TYPE_ID='LEAK' VENT_ID='V-15B' VENT2_ID='V-15T' AREA=0.00214 /
&HVAC ID='L-16' TYPE_ID='LEAK' VENT_ID='V-16B' VENT2_ID='V-16T' AREA=0.00214 /
&HVAC ID='L-17' TYPE_ID='LEAK' VENT_ID='V-17B' VENT2_ID='V-17T' AREA=0.00214 /
&HVAC ID='L-18' TYPE_ID='LEAK' VENT_ID='V-18B' VENT2_ID='V-18T' AREA=0.00214 /
&HVAC ID='L-19' TYPE_ID='LEAK' VENT_ID='V-19B' VENT2_ID='V-19T' AREA=0.00214 /
&HVAC ID='L-20' TYPE_ID='LEAK' VENT_ID='V-20B' VENT2_ID='V-20T' AREA=0.00214 /
! ... 138 like lines cut
&HVAC ID='L-1001' TYPE_ID='LEAK' VENT_ID='V-1001B' VENT2_ID='V-1001T'
      AREA=0.00180 /
&HVAC ID='L-1002' TYPE_ID='LEAK' VENT_ID='V-1002B' VENT2_ID='V-1002T'
      AREA=0.00180 /
&HVAC ID='L-1004' TYPE_ID='LEAK' VENT_ID='V-1004B' VENT2_ID='V-1004T'
      AREA=0.00180 /
&HVAC ID='L-1005' TYPE_ID='LEAK' VENT_ID='V-1005B' VENT2_ID='V-1005T'
      AREA=0.00163 /
&HVAC ID='L-1007' TYPE_ID='LEAK' VENT_ID='V-1007B' VENT2_ID='V-1007T'
      AREA=0.00180 /
&HVAC ID='L-1008' TYPE_ID='LEAK' VENT_ID='V-1008B' VENT2_ID='V-1008T'
      AREA=0.00180 /
&HVAC ID='L-1009' TYPE_ID='LEAK' VENT_ID='V-1009B' VENT2_ID='V-1009T'
      AREA=0.00180 /
&HVAC ID='L-1010' TYPE_ID='LEAK' VENT_ID='V-1010B' VENT2_ID='V-1010T'
      AREA=0.00180 /
&HVAC ID='L-1015' TYPE_ID='LEAK' VENT_ID='V-1015B' VENT2_ID='V-1015T'
      AREA=0.00180 /
&HVAC ID='L-1016' TYPE_ID='LEAK' VENT_ID='V-1016B' VENT2_ID='V-1016T'
      AREA=0.00180 /
&HVAC ID='L-1017' TYPE_ID='LEAK' VENT_ID='V-1017B' VENT2_ID='V-1017T'
      AREA=0.00180 /
&HVAC ID='L-1018' TYPE_ID='LEAK' VENT_ID='V-1018B' VENT2_ID='V-1018T'
      AREA=0.00180 /
&HVAC ID='L-1023' TYPE_ID='LEAK' VENT_ID='V-1023B' VENT2_ID='V-1023T'
      AREA=0.00180 /
&HVAC ID='L-1024' TYPE_ID='LEAK' VENT_ID='V-1024B' VENT2_ID='V-1024T'
      AREA=0.00180 /
&HVAC ID='L-1025' TYPE_ID='LEAK' VENT_ID='V-1025B' VENT2_ID='V-1025T'
      AREA=0.00180 /
&HVAC ID='L-1026' TYPE_ID='LEAK' VENT_ID='V-1026B' VENT2_ID='V-1026T'
      AREA=0.00180 /
&HVAC ID='L-1028' TYPE_ID='LEAK' VENT_ID='V-1028B' VENT2_ID='V-1028T'
      AREA=0.00180 /
&HVAC ID='L-1029' TYPE_ID='LEAK' VENT_ID='V-1029B' VENT2_ID='V-1029T'
      AREA=0.00163 /
&HVAC ID='L-1031' TYPE_ID='LEAK' VENT_ID='V-1031B' VENT2_ID='V-1031T'
      AREA=0.00180 /
&HVAC ID='L-1032' TYPE_ID='LEAK' VENT_ID='V-1032B' VENT2_ID='V-1032T'
      AREA=0.00180 /
! ... 248 like lines cut

--- Boundary conditions from Blender Materials

&SURF ID='C-SCREEN' RGB=204,204,204 GEOMETRY='CYLINDRICAL' THICKNESS=0.0002231
      ADIABATIC=T /
&SURF ID='CABINET' RGB=100,100,230 MATL_ID='STEEL' THICKNESS=0.001 /
&SURF ID='CEILING' RGB=185,190,190 MATL_ID='GYPSUM' THICKNESS=0.0127 /
&SURF ID='DOOR' RGB=210,110,110 MATL_ID='GYPSUM' THICKNESS=0.0127 /
&SURF ID='DUCT' RGB=153,153,153 TRANSPARENCY=0.500 MATL_ID='STEEL'
      THICKNESS=0.001 /
&SURF ID='F-SCREEN' RGB=204,204,204 GEOMETRY='CYLINDRICAL' THICKNESS=0.0004219
      ADIABATIC=T /
&SURF ID='FAN' RGB=0,255,0 VOLUME_FLOW=12.80676582 /
&SURF ID='FLOOR' RGB=180,180,180 MATL_ID='GYPSUM' THICKNESS=0.0127 /
&SURF ID='FLOOR GRATE' RGB=50,100,50 MATL_ID='ALUMINUM' THICKNESS=0.002
      FREE_SLIP=T /
&SURF ID='I-SCREEN' RGB=204,204,204 GEOMETRY='CYLINDRICAL' THICKNESS=0.0001288
      ADIABATIC=T /
&SURF ID='M-SCREEN' RGB=204,204,204 GEOMETRY='CYLINDRICAL' THICKNESS=0.000254
      ADIABATIC=T /
&SURF ID='POLE' RGB=90,90,90 MATL_ID='ALUMINUM' THICKNESS=0.002 /
&SURF ID='R-SCREEN' RGB=204,204,204 GEOMETRY='CYLINDRICAL' THICKNESS=0.0001200
      ADIABATIC=T /
&SURF ID='STUD' RGB=245,222,179 MATL_ID='WOOD' THICKNESS=0.0381 /
&SURF ID='TRAY' RGB=30,30,30 MATL_ID='STEEL' THICKNESS=0.001 /
&SURF ID='WALL' RGB=210,210,210 MATL_ID='GYPSUM' THICKNESS=0.0127 DEFAULT=T /
&SURF ID='WINDOW' RGB=210,210,210 MATL_ID='PLEXI' THICKNESS=0.005 /
&SURF ID='propylene-FIRE' RGB=255,0,0 BACKING='INSULATED' MLRPUA=0.02635
      RAMP_Q='Propylene-RAMP' /

--- Computational domain | MPI Processes: 6 | MESH Qty: 9 | Cell Qty: 1859544

-- MPI Process: <0> | MESH Qty: 1 | Cell Qty: 331776
Cell Qty: 331776 | Size: 0.051·0.051·0.051m | Aspect: 1.0 | Poisson: Yes
&MESH ID='New MESH' IJK=48,72,96 XB=0.0000,2.4384,0.0000,3.6576,0.0000,4.8768
      MPI_PROCESS=0 /

-- MPI Process: <1> | MESH Qty: 1 | Cell Qty: 331776
Cell Qty: 331776 | Size: 0.051·0.051·0.051m | Aspect: 1.0 | Poisson: Yes
&MESH ID='New MESH.001' IJK=48,72,96
      XB=0.0000,2.4384,3.6576,7.3152,0.0000,4.8768 MPI_PROCESS=1 /

-- MPI Process: <2> | MESH Qty: 1 | Cell Qty: 331776
Cell Qty: 331776 | Size: 0.051·0.051·0.051m | Aspect: 1.0 | Poisson: Yes
&MESH ID='New MESH.002' IJK=48,72,96
      XB=2.4384,4.8768,0.0000,3.6576,0.0000,4.8768 MPI_PROCESS=2 /

-- MPI Process: <3> | MESH Qty: 1 | Cell Qty: 331776
Cell Qty: 331776 | Size: 0.051·0.051·0.051m | Aspect: 1.0 | Poisson: Yes
&MESH ID='New MESH.003' IJK=48,72,96
      XB=2.4384,4.8768,3.6576,7.3152,0.0000,4.8768 MPI_PROCESS=3 /

-- MPI Process: <4> | MESH Qty: 2 | Cell Qty: 230400
Cell Qty: 129600 | Size: 0.051·0.051·0.051m | Aspect: 1.0 | Poisson: Yes
&MESH ID='New MESH.004' IJK=96,45,30
      XB=0.0000,4.8768,-2.2860,0.0000,3.3528,4.8768 MPI_PROCESS=4 /
Cell Qty: 100800 | Size: 0.051·0.051·0.051m | Aspect: 1.0 | Poisson: Yes
&MESH ID='New MESH.007' IJK=70,60,24
      XB=3.5560,7.1120,-3.0480,0.0000,0.0000,1.2192 MPI_PROCESS=4 /

-- MPI Process: <5> | MESH Qty: 3 | Cell Qty: 302040
Cell Qty: 109440 | Size: 0.051·0.051·0.051m | Aspect: 1.0 | Poisson: Yes
&MESH ID='New MESH.008' IJK=76,60,24
      XB=3.2512,7.1120,-6.0960,-3.0480,0.0000,1.2192 MPI_PROCESS=5 /
Cell Qty: 100800 | Size: 0.051·0.051·0.051m | Aspect: 1.0 | Poisson: Yes
&MESH ID='New MESH.006' IJK=70,60,24
      XB=0.0000,3.5560,-3.0480,0.0000,0.0000,1.2192 MPI_PROCESS=5 /
Cell Qty: 91800 | Size: 0.051·0.051·0.051m | Aspect: 1.0 | Poisson: No
&MESH ID='New MESH.005' IJK=30,102,30
      XB=1.6764,3.2004,-7.4676,-2.2860,3.3528,4.8768 MPI_PROCESS=5 /

--- Geometric namelists from Blender Collections

-- Blender Collection: <Init domain>
&INIT ID='New INIT' XB=0.0508,4.8260,-0.0483,-0.0025,0.0508,0.8636
      PART_ID='IX-SCREEN' CELL_CENTERED=T N_PARTICLES_PER_CELL=1 /
&INIT ID='New INIT.001' XB=0.0508,4.8260,-0.0483,-0.0025,0.0508,0.8636
      PART_ID='IY-SCREEN' CELL_CENTERED=T N_PARTICLES_PER_CELL=1 /
&INIT ID='New INIT.002' XB=0.0508,4.8260,-0.0483,-0.0025,0.0508,0.8636
      PART_ID='IZ-SCREEN' CELL_CENTERED=T N_PARTICLES_PER_CELL=1 /
&INIT ID='New INIT.003' XB=0.0000,0.6096,1.9812,7.3152,0.8661,0.9119
      PART_ID='FX-SCREEN' CELL_CENTERED=T N_PARTICLES_PER_CELL=1 /
&INIT ID='New INIT.004' XB=4.2672,4.8768,1.9812,7.3152,0.8661,0.9119
      PART_ID='FX-SCREEN' CELL_CENTERED=T N_PARTICLES_PER_CELL=1 /
&INIT ID='New INIT.005' XB=0.0000,0.6096,1.9812,7.3152,0.8661,0.9119
      PART_ID='FY-SCREEN' CELL_CENTERED=T N_PARTICLES_PER_CELL=1 /
&INIT ID='New INIT.006' XB=4.2672,4.8768,1.9812,7.3152,0.8661,0.9119
      PART_ID='FY-SCREEN' CELL_CENTERED=T N_PARTICLES_PER_CELL=1 /
&INIT ID='New INIT.007' XB=0.0000,0.6096,1.9812,7.3152,0.8661,0.9119
      PART_ID='FZ-SCREEN' CELL_CENTERED=T N_PARTICLES_PER_CELL=1 /
&INIT ID='New INIT.008' XB=4.2672,4.8768,1.9812,7.3152,0.8661,0.9119
      PART_ID='FZ-SCREEN' CELL_CENTERED=T N_PARTICLES_PER_CELL=1 /
&INIT ID='New INIT.009' XB=1.2700,1.7780,6.7564,7.2644,3.9649,4.0107
      PART_ID='CX-SCREEN' CELL_CENTERED=T N_PARTICLES_PER_CELL=1 /
&INIT ID='New INIT.010' XB=3.0988,3.6068,6.7564,7.2644,3.9649,4.0107
      PART_ID='CX-SCREEN' CELL_CENTERED=T N_PARTICLES_PER_CELL=1 /
&INIT ID='New INIT.011' XB=1.8796,2.9972,6.1468,6.6548,3.9649,4.0107
      PART_ID='CX-SCREEN' CELL_CENTERED=T N_PARTICLES_PER_CELL=1 /
&INIT ID='New INIT.012' XB=1.2700,1.7780,4.9276,5.4356,3.9649,4.0107
      PART_ID='CX-SCREEN' CELL_CENTERED=T N_PARTICLES_PER_CELL=1 /
&INIT ID='New INIT.013' XB=3.0988,3.6068,4.9276,5.4356,3.9649,4.0107
      PART_ID='CX-SCREEN' CELL_CENTERED=T N_PARTICLES_PER_CELL=1 /
&INIT ID='New INIT.014' XB=1.8796,2.9972,4.3180,4.8260,3.9649,4.0107
      PART_ID='CX-SCREEN' CELL_CENTERED=T N_PARTICLES_PER_CELL=1 /
&INIT ID='New INIT.015' XB=1.2700,1.7780,3.0988,3.6068,3.9649,4.0107
      PART_ID='CX-SCREEN' CELL_CENTERED=T N_PARTICLES_PER_CELL=1 /
&INIT ID='New INIT.016' XB=3.0988,3.6068,3.0988,3.6068,3.9649,4.0107
      PART_ID='CX-SCREEN' CELL_CENTERED=T N_PARTICLES_PER_CELL=1 /
&INIT ID='New INIT.017' XB=1.8796,2.9972,2.4892,2.9972,3.9649,4.0107
      PART_ID='CX-SCREEN' CELL_CENTERED=T N_PARTICLES_PER_CELL=1 /
&INIT ID='New INIT.018' XB=1.2700,1.7780,1.2700,1.7780,3.9649,4.0107
      PART_ID='CX-SCREEN' CELL_CENTERED=T N_PARTICLES_PER_CELL=1 /
&INIT ID='New INIT.019' XB=3.0988,3.6068,1.2700,1.7780,3.9649,4.0107
      PART_ID='CX-SCREEN' CELL_CENTERED=T N_PARTICLES_PER_CELL=1 /
&INIT ID='New INIT.020' XB=1.8796,2.9972,0.6604,1.1684,3.9649,4.0107
      PART_ID='CX-SCREEN' CELL_CENTERED=T N_PARTICLES_PER_CELL=1 /
&INIT ID='New INIT.021' XB=1.2700,1.7780,0.0508,0.5588,3.9649,4.0107
      PART_ID='CX-SCREEN' CELL_CENTERED=T N_PARTICLES_PER_CELL=1 /
&INIT ID='New INIT.022' XB=3.0988,3.6068,0.0508,0.5588,3.9649,4.0107
      PART_ID='CX-SCREEN' CELL_CENTERED=T N_PARTICLES_PER_CELL=1 /
&INIT ID='New INIT.023' XB=1.2700,1.7780,6.7564,7.2644,3.9649,4.0107
      PART_ID='CY-SCREEN' CELL_CENTERED=T N_PARTICLES_PER_CELL=1 /
&INIT ID='New INIT.024' XB=3.0988,3.6068,6.7564,7.2644,3.9649,4.0107
      PART_ID='CY-SCREEN' CELL_CENTERED=T N_PARTICLES_PER_CELL=1 /
&INIT ID='New INIT.025' XB=1.8796,2.9972,6.1468,6.6548,3.9649,4.0107
      PART_ID='CY-SCREEN' CELL_CENTERED=T N_PARTICLES_PER_CELL=1 /
&INIT ID='New INIT.026' XB=1.2700,1.7780,4.9276,5.4356,3.9649,4.0107
      PART_ID='CY-SCREEN' CELL_CENTERED=T N_PARTICLES_PER_CELL=1 /
&INIT ID='New INIT.027' XB=3.0988,3.6068,4.9276,5.4356,3.9649,4.0107
      PART_ID='CY-SCREEN' CELL_CENTERED=T N_PARTICLES_PER_CELL=1 /
&INIT ID='New INIT.028' XB=1.8796,2.9972,4.3180,4.8260,3.9649,4.0107
      PART_ID='CY-SCREEN' CELL_CENTERED=T N_PARTICLES_PER_CELL=1 /
&INIT ID='New INIT.029' XB=1.2700,1.7780,3.0988,3.6068,3.9649,4.0107
      PART_ID='CY-SCREEN' CELL_CENTERED=T N_PARTICLES_PER_CELL=1 /
&INIT ID='New INIT.030' XB=3.0988,3.6068,3.0988,3.6068,3.9649,4.0107
      PART_ID='CY-SCREEN' CELL_CENTERED=T N_PARTICLES_PER_CELL=1 /
&INIT ID='New INIT.031' XB=1.8796,2.9972,2.4892,2.9972,3.9649,4.0107
      PART_ID='CY-SCREEN' CELL_CENTERED=T N_PARTICLES_PER_CELL=1 /
&INIT ID='New INIT.032' XB=1.2700,1.7780,1.2700,1.7780,3.9649,4.0107
      PART_ID='CY-SCREEN' CELL_CENTERED=T N_PARTICLES_PER_CELL=1 /
&INIT ID='New INIT.033' XB=3.0988,3.6068,1.2700,1.7780,3.9649,4.0107
      PART_ID='CY-SCREEN' CELL_CENTERED=T N_PARTICLES_PER_CELL=1 /
&INIT ID='New INIT.034' XB=1.8796,2.9972,0.6604,1.1684,3.9649,4.0107
      PART_ID='CY-SCREEN' CELL_CENTERED=T N_PARTICLES_PER_CELL=1 /
&INIT ID='New INIT.035' XB=1.2700,1.7780,0.0508,0.5588,3.9649,4.0107
      PART_ID='CY-SCREEN' CELL_CENTERED=T N_PARTICLES_PER_CELL=1 /
&INIT ID='New INIT.036' XB=3.0988,3.6068,0.0508,0.5588,3.9649,4.0107
      PART_ID='CY-SCREEN' CELL_CENTERED=T N_PARTICLES_PER_CELL=1 /
&INIT ID='New INIT.037' XB=1.2700,1.7780,6.7564,7.2644,3.9649,4.0107
      PART_ID='CZ-SCREEN' CELL_CENTERED=T N_PARTICLES_PER_CELL=1 /
&INIT ID='New INIT.038' XB=3.0988,3.6068,6.7564,7.2644,3.9649,4.0107
      PART_ID='CZ-SCREEN' CELL_CENTERED=T N_PARTICLES_PER_CELL=1 /
&INIT ID='New INIT.039' XB=1.8796,2.9972,6.1468,6.6548,3.9649,4.0107
      PART_ID='CZ-SCREEN' CELL_CENTERED=T N_PARTICLES_PER_CELL=1 /
&INIT ID='New INIT.040' XB=1.2700,1.7780,4.9276,5.4356,3.9649,4.0107
      PART_ID='CZ-SCREEN' CELL_CENTERED=T N_PARTICLES_PER_CELL=1 /
&INIT ID='New INIT.041' XB=3.0988,3.6068,4.9276,5.4356,3.9649,4.0107
      PART_ID='CZ-SCREEN' CELL_CENTERED=T N_PARTICLES_PER_CELL=1 /
&INIT ID='New INIT.042' XB=1.8796,2.9972,4.3180,4.8260,3.9649,4.0107
      PART_ID='CZ-SCREEN' CELL_CENTERED=T N_PARTICLES_PER_CELL=1 /
&INIT ID='New INIT.043' XB=1.2700,1.7780,3.0988,3.6068,3.9649,4.0107
      PART_ID='CZ-SCREEN' CELL_CENTERED=T N_PARTICLES_PER_CELL=1 /
&INIT ID='New INIT.044' XB=3.0988,3.6068,3.0988,3.6068,3.9649,4.0107
      PART_ID='CZ-SCREEN' CELL_CENTERED=T N_PARTICLES_PER_CELL=1 /
&INIT ID='New INIT.045' XB=1.8796,2.9972,2.4892,2.9972,3.9649,4.0107
      PART_ID='CZ-SCREEN' CELL_CENTERED=T N_PARTICLES_PER_CELL=1 /
&INIT ID='New INIT.046' XB=1.2700,1.7780,1.2700,1.7780,3.9649,4.0107
      PART_ID='CZ-SCREEN' CELL_CENTERED=T N_PARTICLES_PER_CELL=1 /
&INIT ID='New INIT.047' XB=3.0988,3.6068,1.2700,1.7780,3.9649,4.0107
      PART_ID='CZ-SCREEN' CELL_CENTERED=T N_PARTICLES_PER_CELL=1 /
&INIT ID='New INIT.048' XB=1.8796,2.9972,0.6604,1.1684,3.9649,4.0107
      PART_ID='CZ-SCREEN' CELL_CENTERED=T N_PARTICLES_PER_CELL=1 /
&INIT ID='New INIT.049' XB=1.2700,1.7780,0.0508,0.5588,3.9649,4.0107
      PART_ID='CZ-SCREEN' CELL_CENTERED=T N_PARTICLES_PER_CELL=1 /
&INIT ID='New INIT.050' XB=3.0988,3.6068,0.0508,0.5588,3.9649,4.0107
      PART_ID='CZ-SCREEN' CELL_CENTERED=T N_PARTICLES_PER_CELL=1 /
&INIT ID='New INIT.051' XB=0.6121,0.6579,7.0104,7.2644,1.1176,2.6924
      PART_ID='RX-SCREEN' CELL_CENTERED=T N_PARTICLES_PER_CELL=1 /
&INIT ID='New INIT.052' XB=0.6121,0.6579,6.6548,6.9088,1.1176,2.6924
      PART_ID='RX-SCREEN' CELL_CENTERED=T N_PARTICLES_PER_CELL=1 /
&INIT ID='New INIT.053' XB=0.6121,0.6579,6.2484,6.5024,1.1176,2.6924
      PART_ID='RX-SCREEN' CELL_CENTERED=T N_PARTICLES_PER_CELL=1 /
&INIT ID='New INIT.054' XB=0.6121,0.6579,5.8928,6.1468,1.1176,2.6924
      PART_ID='RX-SCREEN' CELL_CENTERED=T N_PARTICLES_PER_CELL=1 /
&INIT ID='New INIT.055' XB=0.6121,0.6579,5.4864,5.7404,1.1176,2.6924
      PART_ID='RX-SCREEN' CELL_CENTERED=T N_PARTICLES_PER_CELL=1 /
&INIT ID='New INIT.056' XB=0.6121,0.6579,5.1308,5.3848,1.1176,2.6924
      PART_ID='RX-SCREEN' CELL_CENTERED=T N_PARTICLES_PER_CELL=1 /
&INIT ID='New INIT.057' XB=0.6121,0.6579,4.7244,4.9784,1.1176,2.6924
      PART_ID='RX-SCREEN' CELL_CENTERED=T N_PARTICLES_PER_CELL=1 /
&INIT ID='New INIT.058' XB=0.6121,0.6579,4.3688,4.6228,1.1176,2.6924
      PART_ID='RX-SCREEN' CELL_CENTERED=T N_PARTICLES_PER_CELL=1 /
&INIT ID='New INIT.059' XB=0.6121,0.6579,3.9624,4.2164,1.1176,2.6924
      PART_ID='RX-SCREEN' CELL_CENTERED=T N_PARTICLES_PER_CELL=1 /
&INIT ID='New INIT.060' XB=0.6121,0.6579,3.6068,3.8608,1.1176,2.6924
      PART_ID='RX-SCREEN' CELL_CENTERED=T N_PARTICLES_PER_CELL=1 /
&INIT ID='New INIT.061' XB=0.6121,0.6579,3.2004,3.4544,1.1176,2.6924
      PART_ID='RX-SCREEN' CELL_CENTERED=T N_PARTICLES_PER_CELL=1 /
&INIT ID='New INIT.062' XB=0.6121,0.6579,2.8448,3.0988,1.1176,2.6924
      PART_ID='RX-SCREEN' CELL_CENTERED=T N_PARTICLES_PER_CELL=1 /
&INIT ID='New INIT.063' XB=0.6121,0.6579,2.4384,2.6924,1.1176,2.6924
      PART_ID='RX-SCREEN' CELL_CENTERED=T N_PARTICLES_PER_CELL=1 /
&INIT ID='New INIT.064' XB=0.6121,0.6579,2.0828,2.3368,1.1176,2.6924
      PART_ID='RX-SCREEN' CELL_CENTERED=T N_PARTICLES_PER_CELL=1 /
&INIT ID='New INIT.065' XB=4.2189,4.2647,7.0104,7.2644,1.1176,2.6924
      PART_ID='RX-SCREEN' CELL_CENTERED=T N_PARTICLES_PER_CELL=1 /
&INIT ID='New INIT.066' XB=4.2189,4.2647,6.6548,6.9088,1.1176,2.6924
      PART_ID='RX-SCREEN' CELL_CENTERED=T N_PARTICLES_PER_CELL=1 /
&INIT ID='New INIT.067' XB=4.2189,4.2647,6.2484,6.5024,1.1176,2.6924
      PART_ID='RX-SCREEN' CELL_CENTERED=T N_PARTICLES_PER_CELL=1 /
&INIT ID='New INIT.068' XB=4.2189,4.2647,5.8928,6.1468,1.1176,2.6924
      PART_ID='RX-SCREEN' CELL_CENTERED=T N_PARTICLES_PER_CELL=1 /
&INIT ID='New INIT.069' XB=4.2189,4.2647,5.4864,5.7404,1.1176,2.6924
      PART_ID='RX-SCREEN' CELL_CENTERED=T N_PARTICLES_PER_CELL=1 /
&INIT ID='New INIT.070' XB=4.2189,4.2647,5.1308,5.3848,1.1176,2.6924
      PART_ID='RX-SCREEN' CELL_CENTERED=T N_PARTICLES_PER_CELL=1 /
! ... 77 like lines cut
      PART_ID='RY-SCREEN' CELL_CENTERED=T N_PARTICLES_PER_CELL=1 /
&INIT ID='New INIT.110' XB=0.6121,0.6579,6.6548,6.9088,1.1176,2.6924
      PART_ID='RY-SCREEN' CELL_CENTERED=T N_PARTICLES_PER_CELL=1 /
&INIT ID='New INIT.111' XB=0.6121,0.6579,6.2484,6.5024,1.1176,2.6924
      PART_ID='RY-SCREEN' CELL_CENTERED=T N_PARTICLES_PER_CELL=1 /
&INIT ID='New INIT.112' XB=0.6121,0.6579,5.8928,6.1468,1.1176,2.6924
      PART_ID='RY-SCREEN' CELL_CENTERED=T N_PARTICLES_PER_CELL=1 /
&INIT ID='New INIT.113' XB=0.6121,0.6579,5.4864,5.7404,1.1176,2.6924
      PART_ID='RY-SCREEN' CELL_CENTERED=T N_PARTICLES_PER_CELL=1 /
&INIT ID='New INIT.114' XB=0.6121,0.6579,5.1308,5.3848,1.1176,2.6924
      PART_ID='RY-SCREEN' CELL_CENTERED=T N_PARTICLES_PER_CELL=1 /
&INIT ID='New INIT.115' XB=0.6121,0.6579,4.7244,4.9784,1.1176,2.6924
      PART_ID='RY-SCREEN' CELL_CENTERED=T N_PARTICLES_PER_CELL=1 /
&INIT ID='New INIT.116' XB=0.6121,0.6579,4.3688,4.6228,1.1176,2.6924
      PART_ID='RY-SCREEN' CELL_CENTERED=T N_PARTICLES_PER_CELL=1 /
&INIT ID='New INIT.117' XB=0.6121,0.6579,3.9624,4.2164,1.1176,2.6924
      PART_ID='RY-SCREEN' CELL_CENTERED=T N_PARTICLES_PER_CELL=1 /
&INIT ID='New INIT.118' XB=0.6121,0.6579,3.6068,3.8608,1.1176,2.6924
      PART_ID='RY-SCREEN' CELL_CENTERED=T N_PARTICLES_PER_CELL=1 /
&INIT ID='New INIT.119' XB=0.6121,0.6579,3.2004,3.4544,1.1176,2.6924
      PART_ID='RY-SCREEN' CELL_CENTERED=T N_PARTICLES_PER_CELL=1 /
&INIT ID='New INIT.120' XB=0.6121,0.6579,2.8448,3.0988,1.1176,2.6924
      PART_ID='RY-SCREEN' CELL_CENTERED=T N_PARTICLES_PER_CELL=1 /
&INIT ID='New INIT.121' XB=0.6121,0.6579,2.4384,2.6924,1.1176,2.6924
      PART_ID='RY-SCREEN' CELL_CENTERED=T N_PARTICLES_PER_CELL=1 /
&INIT ID='New INIT.122' XB=0.6121,0.6579,2.0828,2.3368,1.1176,2.6924
      PART_ID='RY-SCREEN' CELL_CENTERED=T N_PARTICLES_PER_CELL=1 /
&INIT ID='New INIT.123' XB=4.2189,4.2647,7.0104,7.2644,1.1176,2.6924
      PART_ID='RY-SCREEN' CELL_CENTERED=T N_PARTICLES_PER_CELL=1 /
&INIT ID='New INIT.124' XB=4.2189,4.2647,6.6548,6.9088,1.1176,2.6924
      PART_ID='RY-SCREEN' CELL_CENTERED=T N_PARTICLES_PER_CELL=1 /
&INIT ID='New INIT.125' XB=4.2189,4.2647,6.2484,6.5024,1.1176,2.6924
      PART_ID='RY-SCREEN' CELL_CENTERED=T N_PARTICLES_PER_CELL=1 /
&INIT ID='New INIT.126' XB=4.2189,4.2647,5.8928,6.1468,1.1176,2.6924
      PART_ID='RY-SCREEN' CELL_CENTERED=T N_PARTICLES_PER_CELL=1 /
&INIT ID='New INIT.127' XB=4.2189,4.2647,5.4864,5.7404,1.1176,2.6924
      PART_ID='RY-SCREEN' CELL_CENTERED=T N_PARTICLES_PER_CELL=1 /
&INIT ID='New INIT.128' XB=4.2189,4.2647,5.1308,5.3848,1.1176,2.6924
      PART_ID='RY-SCREEN' CELL_CENTERED=T N_PARTICLES_PER_CELL=1 /
&INIT ID='New INIT.129' XB=4.2189,4.2647,4.7244,4.9784,1.1176,2.6924
! ... 76 like lines cut
      PART_ID='RZ-SCREEN' CELL_CENTERED=T N_PARTICLES_PER_CELL=1 /
&INIT ID='New INIT.168' XB=0.6121,0.6579,6.6548,6.9088,1.1176,2.6924
      PART_ID='RZ-SCREEN' CELL_CENTERED=T N_PARTICLES_PER_CELL=1 /
&INIT ID='New INIT.169' XB=0.6121,0.6579,6.2484,6.5024,1.1176,2.6924
      PART_ID='RZ-SCREEN' CELL_CENTERED=T N_PARTICLES_PER_CELL=1 /
&INIT ID='New INIT.170' XB=0.6121,0.6579,5.8928,6.1468,1.1176,2.6924
      PART_ID='RZ-SCREEN' CELL_CENTERED=T N_PARTICLES_PER_CELL=1 /
&INIT ID='New INIT.171' XB=0.6121,0.6579,5.4864,5.7404,1.1176,2.6924
      PART_ID='RZ-SCREEN' CELL_CENTERED=T N_PARTICLES_PER_CELL=1 /
&INIT ID='New INIT.172' XB=0.6121,0.6579,5.1308,5.3848,1.1176,2.6924
      PART_ID='RZ-SCREEN' CELL_CENTERED=T N_PARTICLES_PER_CELL=1 /
&INIT ID='New INIT.173' XB=0.6121,0.6579,4.7244,4.9784,1.1176,2.6924
      PART_ID='RZ-SCREEN' CELL_CENTERED=T N_PARTICLES_PER_CELL=1 /
&INIT ID='New INIT.174' XB=0.6121,0.6579,4.3688,4.6228,1.1176,2.6924
      PART_ID='RZ-SCREEN' CELL_CENTERED=T N_PARTICLES_PER_CELL=1 /
&INIT ID='New INIT.175' XB=0.6121,0.6579,3.9624,4.2164,1.1176,2.6924
      PART_ID='RZ-SCREEN' CELL_CENTERED=T N_PARTICLES_PER_CELL=1 /
&INIT ID='New INIT.176' XB=0.6121,0.6579,3.6068,3.8608,1.1176,2.6924
      PART_ID='RZ-SCREEN' CELL_CENTERED=T N_PARTICLES_PER_CELL=1 /
&INIT ID='New INIT.177' XB=0.6121,0.6579,3.2004,3.4544,1.1176,2.6924
      PART_ID='RZ-SCREEN' CELL_CENTERED=T N_PARTICLES_PER_CELL=1 /
&INIT ID='New INIT.178' XB=0.6121,0.6579,2.8448,3.0988,1.1176,2.6924
      PART_ID='RZ-SCREEN' CELL_CENTERED=T N_PARTICLES_PER_CELL=1 /
&INIT ID='New INIT.179' XB=0.6121,0.6579,2.4384,2.6924,1.1176,2.6924
      PART_ID='RZ-SCREEN' CELL_CENTERED=T N_PARTICLES_PER_CELL=1 /
&INIT ID='New INIT.180' XB=0.6121,0.6579,2.0828,2.3368,1.1176,2.6924
      PART_ID='RZ-SCREEN' CELL_CENTERED=T N_PARTICLES_PER_CELL=1 /
&INIT ID='New INIT.181' XB=4.2189,4.2647,7.0104,7.2644,1.1176,2.6924
      PART_ID='RZ-SCREEN' CELL_CENTERED=T N_PARTICLES_PER_CELL=1 /
&INIT ID='New INIT.182' XB=4.2189,4.2647,6.6548,6.9088,1.1176,2.6924
      PART_ID='RZ-SCREEN' CELL_CENTERED=T N_PARTICLES_PER_CELL=1 /
&INIT ID='New INIT.183' XB=4.2189,4.2647,6.2484,6.5024,1.1176,2.6924
      PART_ID='RZ-SCREEN' CELL_CENTERED=T N_PARTICLES_PER_CELL=1 /
&INIT ID='New INIT.184' XB=4.2189,4.2647,5.8928,6.1468,1.1176,2.6924
      PART_ID='RZ-SCREEN' CELL_CENTERED=T N_PARTICLES_PER_CELL=1 /
&INIT ID='New INIT.185' XB=4.2189,4.2647,5.4864,5.7404,1.1176,2.6924
      PART_ID='RZ-SCREEN' CELL_CENTERED=T N_PARTICLES_PER_CELL=1 /
&INIT ID='New INIT.186' XB=4.2189,4.2647,5.1308,5.3848,1.1176,2.6924
      PART_ID='RZ-SCREEN' CELL_CENTERED=T N_PARTICLES_PER_CELL=1 /
&INIT ID='New INIT.187' XB=4.2189,4.2647,4.7244,4.9784,1.1176,2.6924
! ... 76 like lines cut
      PART_ID='RX-SCREEN' CELL_CENTERED=T N_PARTICLES_PER_CELL=1 /
&INIT ID='New INIT.226' XB=0.6121,0.6579,6.7056,6.9088,0.9652,1.0668
      PART_ID='RX-SCREEN' CELL_CENTERED=T N_PARTICLES_PER_CELL=1 /
&INIT ID='New INIT.227' XB=0.6121,0.6579,6.2484,6.4516,0.9652,1.0668
      PART_ID='RX-SCREEN' CELL_CENTERED=T N_PARTICLES_PER_CELL=1 /
&INIT ID='New INIT.228' XB=0.6121,0.6579,5.9436,6.1468,0.9652,1.0668
      PART_ID='RX-SCREEN' CELL_CENTERED=T N_PARTICLES_PER_CELL=1 /
&INIT ID='New INIT.229' XB=0.6121,0.6579,5.4864,5.6896,0.9652,1.0668
      PART_ID='RX-SCREEN' CELL_CENTERED=T N_PARTICLES_PER_CELL=1 /
&INIT ID='New INIT.230' XB=0.6121,0.6579,5.1816,5.3848,0.9652,1.0668
      PART_ID='RX-SCREEN' CELL_CENTERED=T N_PARTICLES_PER_CELL=1 /
&INIT ID='New INIT.231' XB=0.6121,0.6579,4.7244,4.9276,0.9652,1.0668
      PART_ID='RX-SCREEN' CELL_CENTERED=T N_PARTICLES_PER_CELL=1 /
&INIT ID='New INIT.232' XB=0.6121,0.6579,4.4196,4.6228,0.9652,1.0668
      PART_ID='RX-SCREEN' CELL_CENTERED=T N_PARTICLES_PER_CELL=1 /
&INIT ID='New INIT.233' XB=0.6121,0.6579,3.9624,4.1656,0.9652,1.0668
      PART_ID='RX-SCREEN' CELL_CENTERED=T N_PARTICLES_PER_CELL=1 /
&INIT ID='New INIT.234' XB=0.6121,0.6579,3.6576,3.8608,0.9652,1.0668
      PART_ID='RX-SCREEN' CELL_CENTERED=T N_PARTICLES_PER_CELL=1 /
&INIT ID='New INIT.235' XB=0.6121,0.6579,3.2004,3.4036,0.9652,1.0668
      PART_ID='RX-SCREEN' CELL_CENTERED=T N_PARTICLES_PER_CELL=1 /
&INIT ID='New INIT.236' XB=0.6121,0.6579,2.8956,3.0988,0.9652,1.0668
      PART_ID='RX-SCREEN' CELL_CENTERED=T N_PARTICLES_PER_CELL=1 /
&INIT ID='New INIT.237' XB=0.6121,0.6579,2.4384,2.6416,0.9652,1.0668
      PART_ID='RX-SCREEN' CELL_CENTERED=T N_PARTICLES_PER_CELL=1 /
&INIT ID='New INIT.238' XB=0.6121,0.6579,2.1336,2.3368,0.9652,1.0668
      PART_ID='RX-SCREEN' CELL_CENTERED=T N_PARTICLES_PER_CELL=1 /
&INIT ID='New INIT.239' XB=4.2189,4.2647,7.0104,7.2136,0.9652,1.0668
      PART_ID='RX-SCREEN' CELL_CENTERED=T N_PARTICLES_PER_CELL=1 /
&INIT ID='New INIT.240' XB=4.2189,4.2647,6.7056,6.9088,0.9652,1.0668
      PART_ID='RX-SCREEN' CELL_CENTERED=T N_PARTICLES_PER_CELL=1 /
&INIT ID='New INIT.241' XB=4.2189,4.2647,6.2484,6.4516,0.9652,1.0668
      PART_ID='RX-SCREEN' CELL_CENTERED=T N_PARTICLES_PER_CELL=1 /
&INIT ID='New INIT.242' XB=4.2189,4.2647,5.9436,6.1468,0.9652,1.0668
      PART_ID='RX-SCREEN' CELL_CENTERED=T N_PARTICLES_PER_CELL=1 /
&INIT ID='New INIT.243' XB=4.2189,4.2647,5.4864,5.6896,0.9652,1.0668
      PART_ID='RX-SCREEN' CELL_CENTERED=T N_PARTICLES_PER_CELL=1 /
&INIT ID='New INIT.244' XB=4.2189,4.2647,5.1816,5.3848,0.9652,1.0668
      PART_ID='RX-SCREEN' CELL_CENTERED=T N_PARTICLES_PER_CELL=1 /
&INIT ID='New INIT.245' XB=4.2189,4.2647,4.7244,4.9276,0.9652,1.0668
! ... 72 like lines cut
      PART_ID='RY-SCREEN' CELL_CENTERED=T N_PARTICLES_PER_CELL=1 /
&INIT ID='New INIT.282' XB=0.6121,0.6579,6.7056,6.9088,0.9652,1.0668
      PART_ID='RY-SCREEN' CELL_CENTERED=T N_PARTICLES_PER_CELL=1 /
&INIT ID='New INIT.283' XB=0.6121,0.6579,6.2484,6.4516,0.9652,1.0668
      PART_ID='RY-SCREEN' CELL_CENTERED=T N_PARTICLES_PER_CELL=1 /
&INIT ID='New INIT.284' XB=0.6121,0.6579,5.9436,6.1468,0.9652,1.0668
      PART_ID='RY-SCREEN' CELL_CENTERED=T N_PARTICLES_PER_CELL=1 /
&INIT ID='New INIT.285' XB=0.6121,0.6579,5.4864,5.6896,0.9652,1.0668
      PART_ID='RY-SCREEN' CELL_CENTERED=T N_PARTICLES_PER_CELL=1 /
&INIT ID='New INIT.286' XB=0.6121,0.6579,5.1816,5.3848,0.9652,1.0668
      PART_ID='RY-SCREEN' CELL_CENTERED=T N_PARTICLES_PER_CELL=1 /
&INIT ID='New INIT.287' XB=0.6121,0.6579,4.7244,4.9276,0.9652,1.0668
      PART_ID='RY-SCREEN' CELL_CENTERED=T N_PARTICLES_PER_CELL=1 /
&INIT ID='New INIT.288' XB=0.6121,0.6579,4.4196,4.6228,0.9652,1.0668
      PART_ID='RY-SCREEN' CELL_CENTERED=T N_PARTICLES_PER_CELL=1 /
&INIT ID='New INIT.289' XB=0.6121,0.6579,3.9624,4.1656,0.9652,1.0668
      PART_ID='RY-SCREEN' CELL_CENTERED=T N_PARTICLES_PER_CELL=1 /
&INIT ID='New INIT.290' XB=0.6121,0.6579,3.6576,3.8608,0.9652,1.0668
      PART_ID='RY-SCREEN' CELL_CENTERED=T N_PARTICLES_PER_CELL=1 /
&INIT ID='New INIT.291' XB=0.6121,0.6579,3.2004,3.4036,0.9652,1.0668
      PART_ID='RY-SCREEN' CELL_CENTERED=T N_PARTICLES_PER_CELL=1 /
&INIT ID='New INIT.292' XB=0.6121,0.6579,2.8956,3.0988,0.9652,1.0668
      PART_ID='RY-SCREEN' CELL_CENTERED=T N_PARTICLES_PER_CELL=1 /
&INIT ID='New INIT.293' XB=0.6121,0.6579,2.4384,2.6416,0.9652,1.0668
      PART_ID='RY-SCREEN' CELL_CENTERED=T N_PARTICLES_PER_CELL=1 /
&INIT ID='New INIT.294' XB=0.6121,0.6579,2.1336,2.3368,0.9652,1.0668
      PART_ID='RY-SCREEN' CELL_CENTERED=T N_PARTICLES_PER_CELL=1 /
&INIT ID='New INIT.295' XB=4.2189,4.2647,7.0104,7.2136,0.9652,1.0668
      PART_ID='RY-SCREEN' CELL_CENTERED=T N_PARTICLES_PER_CELL=1 /
&INIT ID='New INIT.296' XB=4.2189,4.2647,6.7056,6.9088,0.9652,1.0668
      PART_ID='RY-SCREEN' CELL_CENTERED=T N_PARTICLES_PER_CELL=1 /
&INIT ID='New INIT.297' XB=4.2189,4.2647,6.2484,6.4516,0.9652,1.0668
      PART_ID='RY-SCREEN' CELL_CENTERED=T N_PARTICLES_PER_CELL=1 /
&INIT ID='New INIT.298' XB=4.2189,4.2647,5.9436,6.1468,0.9652,1.0668
      PART_ID='RY-SCREEN' CELL_CENTERED=T N_PARTICLES_PER_CELL=1 /
&INIT ID='New INIT.299' XB=4.2189,4.2647,5.4864,5.6896,0.9652,1.0668
      PART_ID='RY-SCREEN' CELL_CENTERED=T N_PARTICLES_PER_CELL=1 /
&INIT ID='New INIT.300' XB=4.2189,4.2647,5.1816,5.3848,0.9652,1.0668
      PART_ID='RY-SCREEN' CELL_CENTERED=T N_PARTICLES_PER_CELL=1 /
&INIT ID='New INIT.301' XB=4.2189,4.2647,4.7244,4.9276,0.9652,1.0668
! ... 72 like lines cut
      PART_ID='RZ-SCREEN' CELL_CENTERED=T N_PARTICLES_PER_CELL=1 /
&INIT ID='New INIT.338' XB=0.6121,0.6579,6.7056,6.9088,0.9652,1.0668
      PART_ID='RZ-SCREEN' CELL_CENTERED=T N_PARTICLES_PER_CELL=1 /
&INIT ID='New INIT.339' XB=0.6121,0.6579,6.2484,6.4516,0.9652,1.0668
      PART_ID='RZ-SCREEN' CELL_CENTERED=T N_PARTICLES_PER_CELL=1 /
&INIT ID='New INIT.340' XB=0.6121,0.6579,5.9436,6.1468,0.9652,1.0668
      PART_ID='RZ-SCREEN' CELL_CENTERED=T N_PARTICLES_PER_CELL=1 /
&INIT ID='New INIT.341' XB=0.6121,0.6579,5.4864,5.6896,0.9652,1.0668
      PART_ID='RZ-SCREEN' CELL_CENTERED=T N_PARTICLES_PER_CELL=1 /
&INIT ID='New INIT.342' XB=0.6121,0.6579,5.1816,5.3848,0.9652,1.0668
      PART_ID='RZ-SCREEN' CELL_CENTERED=T N_PARTICLES_PER_CELL=1 /
&INIT ID='New INIT.343' XB=0.6121,0.6579,4.7244,4.9276,0.9652,1.0668
      PART_ID='RZ-SCREEN' CELL_CENTERED=T N_PARTICLES_PER_CELL=1 /
&INIT ID='New INIT.344' XB=0.6121,0.6579,4.4196,4.6228,0.9652,1.0668
      PART_ID='RZ-SCREEN' CELL_CENTERED=T N_PARTICLES_PER_CELL=1 /
&INIT ID='New INIT.345' XB=0.6121,0.6579,3.9624,4.1656,0.9652,1.0668
      PART_ID='RZ-SCREEN' CELL_CENTERED=T N_PARTICLES_PER_CELL=1 /
&INIT ID='New INIT.346' XB=0.6121,0.6579,3.6576,3.8608,0.9652,1.0668
      PART_ID='RZ-SCREEN' CELL_CENTERED=T N_PARTICLES_PER_CELL=1 /
&INIT ID='New INIT.347' XB=0.6121,0.6579,3.2004,3.4036,0.9652,1.0668
      PART_ID='RZ-SCREEN' CELL_CENTERED=T N_PARTICLES_PER_CELL=1 /
&INIT ID='New INIT.348' XB=0.6121,0.6579,2.8956,3.0988,0.9652,1.0668
      PART_ID='RZ-SCREEN' CELL_CENTERED=T N_PARTICLES_PER_CELL=1 /
&INIT ID='New INIT.349' XB=0.6121,0.6579,2.4384,2.6416,0.9652,1.0668
      PART_ID='RZ-SCREEN' CELL_CENTERED=T N_PARTICLES_PER_CELL=1 /
&INIT ID='New INIT.350' XB=0.6121,0.6579,2.1336,2.3368,0.9652,1.0668
      PART_ID='RZ-SCREEN' CELL_CENTERED=T N_PARTICLES_PER_CELL=1 /
&INIT ID='New INIT.351' XB=4.2189,4.2647,7.0104,7.2136,0.9652,1.0668
      PART_ID='RZ-SCREEN' CELL_CENTERED=T N_PARTICLES_PER_CELL=1 /
&INIT ID='New INIT.352' XB=4.2189,4.2647,6.7056,6.9088,0.9652,1.0668
      PART_ID='RZ-SCREEN' CELL_CENTERED=T N_PARTICLES_PER_CELL=1 /
&INIT ID='New INIT.353' XB=4.2189,4.2647,6.2484,6.4516,0.9652,1.0668
      PART_ID='RZ-SCREEN' CELL_CENTERED=T N_PARTICLES_PER_CELL=1 /
&INIT ID='New INIT.354' XB=4.2189,4.2647,5.9436,6.1468,0.9652,1.0668
      PART_ID='RZ-SCREEN' CELL_CENTERED=T N_PARTICLES_PER_CELL=1 /
&INIT ID='New INIT.355' XB=4.2189,4.2647,5.4864,5.6896,0.9652,1.0668
      PART_ID='RZ-SCREEN' CELL_CENTERED=T N_PARTICLES_PER_CELL=1 /
&INIT ID='New INIT.356' XB=4.2189,4.2647,5.1816,5.3848,0.9652,1.0668
      PART_ID='RZ-SCREEN' CELL_CENTERED=T N_PARTICLES_PER_CELL=1 /
&INIT ID='New INIT.357' XB=4.2189,4.2647,4.7244,4.9276,0.9652,1.0668
! ... 72 like lines cut
      PART_ID='M-SCREEN' CELL_CENTERED=T N_PARTICLES_PER_CELL=1 /
&INIT ID='New INIT.394' XB=1.0211,1.0643,1.9812,6.5532,0.9144,2.7432
      PART_ID='M-SCREEN' CELL_CENTERED=T N_PARTICLES_PER_CELL=1 /
&INIT ID='New INIT.395' XB=3.6601,3.7033,6.5532,7.3152,0.9144,2.7432
      PART_ID='M-SCREEN' CELL_CENTERED=T N_PARTICLES_PER_CELL=1 /
&INIT ID='New INIT.396' XB=3.8125,3.8557,1.9812,6.5532,0.9144,2.7432
      PART_ID='M-SCREEN' CELL_CENTERED=T N_PARTICLES_PER_CELL=1 /
&INIT ID='New INIT.397' XB=1.6764,3.2004,-3.2487,-3.2055,3.3528,4.8768
      PART_ID='MD-SCREEN' CELL_CENTERED=T N_PARTICLES_PER_CELL=1 /

-- Blender Collection: <Obstacles>
&VENT ID='DO+X' SURF_ID='DOOR' XB=3.2004,3.2512,0.0000,0.0000,0.9625,2.8965 /
&VENT ID='DO+Z' SURF_ID='DOOR' XB=1.6256,3.2512,0.0000,0.0000,2.8956,2.9464 /
&VENT ID='DO-X' SURF_ID='DOOR' XB=1.6256,1.6764,0.0000,0.0000,0.9652,2.8956 /
&VENT ID='DO-Z' SURF_ID='DOOR' XB=1.6256,3.2512,0.0000,0.0000,0.9144,0.9652 /
&VENT ID='DO=X' SURF_ID='DOOR' XB=2.4384,2.4892,0.0000,0.0000,0.9652,2.8956 /
&VENT ID='DU+X' SURF_ID='DUCT' XB=4.8768,4.8768,-0.1524,-0.1016,3.9624,4.8768 /
&VENT ID='DU+Z' SURF_ID='DUCT' XB=0.0000,4.8768,-0.1524,-0.1016,4.8768,4.8768 /
&VENT ID='DU-X' SURF_ID='DUCT' XB=0.0000,0.0000,-0.1524,-0.1016,3.9624,4.8768 /
&VENT ID='DU-Z' SURF_ID='DUCT' XB=0.0000,4.8768,-0.1524,-0.1016,3.9624,3.9624 /
&HOLE ID='New HOLE' XB=0.0000,0.6096,1.9812,7.3152,0.8611,0.9169 /
&HOLE ID='New HOLE.001' XB=4.2672,4.8768,1.9812,7.3152,0.8611,0.9169 /
&HOLE ID='New HOLE.002' XB=1.2700,1.7780,6.7564,7.2644,3.9599,4.0157 /
&HOLE ID='New HOLE.003' XB=3.0988,3.6068,6.7564,7.2644,3.9599,4.0157 /
&HOLE ID='New HOLE.004' XB=1.8796,2.9972,6.1468,6.6548,3.9599,4.0157 /
&HOLE ID='New HOLE.005' XB=1.2700,1.7780,4.9276,5.4356,3.9599,4.0157 /
&HOLE ID='New HOLE.006' XB=3.0988,3.6068,4.9276,5.4356,3.9599,4.0157 /
&HOLE ID='New HOLE.007' XB=1.8796,2.9972,4.3180,4.8260,3.9599,4.0157 /
&HOLE ID='New HOLE.008' XB=1.2700,1.7780,3.0988,3.6068,3.9599,4.0157 /
&HOLE ID='New HOLE.009' XB=3.0988,3.6068,3.0988,3.6068,3.9599,4.0157 /
&HOLE ID='New HOLE.010' XB=1.8796,2.9972,2.4892,2.9972,3.9599,4.0157 /
&HOLE ID='New HOLE.011' XB=1.2700,1.7780,1.2700,1.7780,3.9599,4.0157 /
&HOLE ID='New HOLE.012' XB=3.0988,3.6068,1.2700,1.7780,3.9599,4.0157 /
&HOLE ID='New HOLE.013' XB=1.8796,2.9972,0.6604,1.1684,3.9599,4.0157 /
&HOLE ID='New HOLE.014' XB=1.2700,1.7780,0.0508,0.5588,3.9599,4.0157 /
&HOLE ID='New HOLE.015' XB=3.0988,3.6068,0.0508,0.5588,3.9599,4.0157 /
&HOLE ID='New HOLE.016' XB=0.6071,0.6629,7.0104,7.2644,1.1176,2.6924 /
&HOLE ID='New HOLE.017' XB=0.6071,0.6629,6.6548,6.9088,1.1176,2.6924 /
&HOLE ID='New HOLE.018' XB=0.6071,0.6629,6.2484,6.5024,1.1176,2.6924 /
&HOLE ID='New HOLE.019' XB=0.6071,0.6629,5.8928,6.1468,1.1176,2.6924 /
&HOLE ID='New HOLE.020' XB=0.6071,0.6629,5.4864,5.7404,1.1176,2.6924 /
! ... 271 like lines cut
&OBST ID='New OBST' XB=1.7780,1.8796,5.7404,5.8420,1.0668,1.1176
      SURF_IDS='propylene-FIRE','DUCT','DUCT' /
&OBST ID='New OBST.001' SURF_ID='WALL'
      XB=0.0000,4.8768,-0.0508,0.0000,3.3528,3.9624 /
&OBST ID='New OBST.002' SURF_ID='WALL'
      XB=0.0000,1.6256,-0.0508,0.0000,0.9144,1.2192 /
&OBST ID='New OBST.003' SURF_ID='WALL'
      XB=3.2512,4.8768,-0.0508,0.0000,0.9144,1.2192 /
&OBST ID='New OBST.004' SURF_ID='DOOR'
      XB=1.6256,3.2512,-0.0508,0.0000,0.9144,1.2192 /
&OBST ID='New OBST.005' SURF_ID='STUD'
      XB=-0.1016,0.0508,-0.1016,0.0000,0.0000,4.8768 /
&OBST ID='New OBST.006' SURF_ID='STUD'
      XB=4.8260,4.9784,-0.1016,0.0000,0.0000,4.8768 /
&OBST ID='New OBST.007' SURF_ID='STUD'
      XB=0.0000,4.8768,-0.1016,0.0000,0.0000,0.0508 /
&OBST ID='New OBST.008' SURF_ID='STUD'
      XB=0.0000,4.8768,-0.1016,0.0000,0.8636,0.9144 /
&OBST ID='New OBST.009' SURF_ID='STUD'
      XB=0.0000,0.0508,-0.1016,0.0000,0.0508,0.8636 /
&OBST ID='New OBST.010' SURF_ID='STUD'
      XB=4.8260,4.8768,-0.1016,0.0000,0.0508,0.8636 /
&OBST ID='New OBST.011' SURF_ID='STUD'
      XB=1.5748,1.6764,-0.1016,0.0000,0.0508,0.8636 /
&OBST ID='New OBST.012' SURF_ID='STUD'
      XB=3.2004,3.3020,-0.1016,0.0000,0.0508,0.8636 /
&OBST ID='New OBST.013' SURF_ID='STUD'
      XB=2.4384,2.4892,-0.1016,0.0000,0.0508,0.8636 /
&OBST ID='New OBST.014' SURF_ID='STUD'
      XB=0.0000,4.8768,-0.1016,0.0000,3.9624,4.0132 /
&OBST ID='New OBST.015' SURF_ID='STUD'
      XB=0.0000,4.8768,-0.1016,0.0000,4.8768,4.9276 /
&OBST ID='New OBST.016' SURF_ID='STUD'
      XB=2.4384,2.4892,-0.1016,0.0000,3.9624,4.8768 /
&OBST ID='New OBST.017' SURF_ID='POLE'
      XB=0.0000,0.0508,0.0000,0.0508,0.0000,0.8636 /
&OBST ID='New OBST.018' SURF_ID='POLE'
      XB=0.0000,0.0508,0.6096,0.6604,0.0000,0.8636 /
&OBST ID='New OBST.019' SURF_ID='POLE'
      XB=0.0000,0.0508,1.2192,1.2700,0.0000,0.8636 /
&OBST ID='New OBST.020' SURF_ID='POLE'
      XB=0.0000,0.0508,1.8288,1.8796,0.0000,0.8636 /
&OBST ID='New OBST.021' SURF_ID='POLE'
      XB=0.0000,0.0508,2.4384,2.4892,0.0000,0.8636 /
&OBST ID='New OBST.022' SURF_ID='POLE'
      XB=0.0000,0.0508,3.0480,3.0988,0.0000,0.8636 /
&OBST ID='New OBST.023' SURF_ID='POLE'
      XB=0.0000,0.0508,3.6576,3.7084,0.0000,0.8636 /
&OBST ID='New OBST.024' SURF_ID='POLE'
      XB=0.0000,0.0508,4.2164,4.2672,0.0000,0.8636 /
&OBST ID='New OBST.025' SURF_ID='POLE'
      XB=0.0000,0.0508,4.8260,4.8768,0.0000,0.8636 /
&OBST ID='New OBST.026' SURF_ID='POLE'
      XB=0.0000,0.0508,5.4356,5.4864,0.0000,0.8636 /
&OBST ID='New OBST.027' SURF_ID='POLE'
      XB=0.0000,0.0508,6.0452,6.0960,0.0000,0.8636 /
&OBST ID='New OBST.028' SURF_ID='POLE'
      XB=0.0000,0.0508,6.6548,6.7056,0.0000,0.8636 /
&OBST ID='New OBST.029' SURF_ID='POLE'
      XB=0.0000,0.0508,7.2644,7.3152,0.0000,0.8636 /
&OBST ID='New OBST.030' SURF_ID='POLE'
      XB=0.6096,0.6604,0.0000,0.0508,0.0000,0.8636 /
&OBST ID='New OBST.031' SURF_ID='POLE'
      XB=0.6096,0.6604,0.6096,0.6604,0.0000,0.8636 /
&OBST ID='New OBST.032' SURF_ID='POLE'
      XB=0.6096,0.6604,1.2192,1.2700,0.0000,0.8636 /
&OBST ID='New OBST.033' SURF_ID='POLE'
      XB=0.6096,0.6604,1.8288,1.8796,0.0000,0.8636 /
&OBST ID='New OBST.034' SURF_ID='POLE'
      XB=0.6096,0.6604,2.4384,2.4892,0.0000,0.8636 /
&OBST ID='New OBST.035' SURF_ID='POLE'
      XB=0.6096,0.6604,3.0480,3.0988,0.0000,0.8636 /
&OBST ID='New OBST.036' SURF_ID='POLE'
! ... 195 like lines cut
&OBST ID='New OBST.134' SURF_ID='FLOOR'
      XB=0.0000,4.8768,0.0000,7.3152,0.8636,0.9144 /
&OBST ID='New OBST.135' SURF_ID='POLE'
      XB=0.0000,4.8768,0.0000,0.0508,0.8128,0.8636 /
&OBST ID='New OBST.136' SURF_ID='POLE'
      XB=0.0000,4.8768,0.6096,0.6604,0.8128,0.8636 /
&OBST ID='New OBST.137' SURF_ID='POLE'
      XB=0.0000,4.8768,1.2192,1.2700,0.8128,0.8636 /
&OBST ID='New OBST.138' SURF_ID='POLE'
      XB=0.0000,4.8768,1.8288,1.8796,0.8128,0.8636 /
&OBST ID='New OBST.139' SURF_ID='POLE'
      XB=0.0000,4.8768,2.4384,2.4892,0.8128,0.8636 /
&OBST ID='New OBST.140' SURF_ID='POLE'
      XB=0.0000,4.8768,3.0480,3.0988,0.8128,0.8636 /
&OBST ID='New OBST.141' SURF_ID='POLE'
      XB=0.0000,4.8768,3.6576,3.7084,0.8128,0.8636 /
&OBST ID='New OBST.142' SURF_ID='POLE'
      XB=0.0000,4.8768,4.2164,4.2672,0.8128,0.8636 /
&OBST ID='New OBST.143' SURF_ID='POLE'
      XB=0.0000,4.8768,4.8260,4.8768,0.8128,0.8636 /
&OBST ID='New OBST.144' SURF_ID='POLE'
      XB=0.0000,4.8768,5.4356,5.4864,0.8128,0.8636 /
&OBST ID='New OBST.145' SURF_ID='POLE'
      XB=0.0000,4.8768,6.0452,6.0960,0.8128,0.8636 /
&OBST ID='New OBST.146' SURF_ID='POLE'
      XB=0.0000,4.8768,6.6548,6.7056,0.8128,0.8636 /
&OBST ID='New OBST.147' SURF_ID='POLE'
      XB=0.0000,4.8768,7.2644,7.3152,0.8128,0.8636 /
&OBST ID='New OBST.148' SURF_ID='POLE'
      XB=0.0000,0.0508,0.0000,7.3152,0.8128,0.8636 /
&OBST ID='New OBST.149' SURF_ID='POLE'
      XB=0.6096,0.6604,0.0000,7.3152,0.8128,0.8636 /
&OBST ID='New OBST.150' SURF_ID='POLE'
      XB=1.2192,1.2700,0.0000,7.3152,0.8128,0.8636 /
&OBST ID='New OBST.151' SURF_ID='POLE'
      XB=1.8288,1.8796,0.0000,7.3152,0.8128,0.8636 /
&OBST ID='New OBST.152' SURF_ID='POLE'
      XB=2.4384,2.4892,0.0000,7.3152,0.8128,0.8636 /
&OBST ID='New OBST.153' SURF_ID='POLE'
      XB=2.9972,3.0480,0.0000,7.3152,0.8128,0.8636 /
&OBST ID='New OBST.154' SURF_ID='POLE'
      XB=3.6068,3.6576,0.0000,7.3152,0.8128,0.8636 /
&OBST ID='New OBST.155' SURF_ID='POLE'
      XB=4.2164,4.2672,0.0000,7.3152,0.8128,0.8636 /
&OBST ID='New OBST.156' SURF_ID='POLE'
      XB=4.8260,4.8768,0.0000,7.3152,0.8128,0.8636 /
&OBST ID='New OBST.157' SURF_ID='FLOOR GRATE'
      XB=0.0000,0.6096,7.1603,7.1628,0.8636,0.9144 PERMIT_HOLE=F /
&OBST ID='New OBST.158' SURF_ID='FLOOR GRATE'
      XB=0.0000,0.6096,7.0079,7.0104,0.8636,0.9144 PERMIT_HOLE=F /
&OBST ID='New OBST.159' SURF_ID='FLOOR GRATE'
      XB=0.0000,0.6096,6.8555,6.8580,0.8636,0.9144 PERMIT_HOLE=F /
&OBST ID='New OBST.160' SURF_ID='FLOOR GRATE'
      XB=0.0000,0.6096,6.7031,6.7056,0.8636,0.9144 PERMIT_HOLE=F /
&OBST ID='New OBST.161' SURF_ID='FLOOR GRATE'
      XB=0.0000,0.6096,6.5507,6.5532,0.8636,0.9144 PERMIT_HOLE=F /
&OBST ID='New OBST.162' SURF_ID='FLOOR GRATE'
      XB=0.0000,0.6096,6.3983,6.4008,0.8636,0.9144 PERMIT_HOLE=F /
&OBST ID='New OBST.163' SURF_ID='FLOOR GRATE'
      XB=0.0000,0.6096,6.2459,6.2484,0.8636,0.9144 PERMIT_HOLE=F /
&OBST ID='New OBST.164' SURF_ID='FLOOR GRATE'
      XB=0.0000,0.6096,6.0935,6.0960,0.8636,0.9144 PERMIT_HOLE=F /
&OBST ID='New OBST.165' SURF_ID='FLOOR GRATE'
      XB=0.0000,0.6096,5.9411,5.9436,0.8636,0.9144 PERMIT_HOLE=F /
&OBST ID='New OBST.166' SURF_ID='FLOOR GRATE'
      XB=0.0000,0.6096,5.7887,5.7912,0.8636,0.9144 PERMIT_HOLE=F /
&OBST ID='New OBST.167' SURF_ID='FLOOR GRATE'
      XB=0.0000,0.6096,5.6363,5.6388,0.8636,0.9144 PERMIT_HOLE=F /
&OBST ID='New OBST.168' SURF_ID='FLOOR GRATE'
      XB=0.0000,0.6096,5.4839,5.4864,0.8636,0.9144 PERMIT_HOLE=F /
&OBST ID='New OBST.169' SURF_ID='FLOOR GRATE'
      XB=0.0000,0.6096,5.3315,5.3340,0.8636,0.9144 PERMIT_HOLE=F /
&OBST ID='New OBST.170' SURF_ID='FLOOR GRATE'
      XB=0.0000,0.6096,5.1791,5.1816,0.8636,0.9144 PERMIT_HOLE=F /
&OBST ID='New OBST.171' SURF_ID='FLOOR GRATE'
      XB=0.0000,0.6096,5.0267,5.0292,0.8636,0.9144 PERMIT_HOLE=F /
&OBST ID='New OBST.172' SURF_ID='FLOOR GRATE'
      XB=0.0000,0.6096,4.8743,4.8768,0.8636,0.9144 PERMIT_HOLE=F /
&OBST ID='New OBST.173' SURF_ID='FLOOR GRATE'
      XB=0.0000,0.6096,4.7219,4.7244,0.8636,0.9144 PERMIT_HOLE=F /
&OBST ID='New OBST.174' SURF_ID='FLOOR GRATE'
      XB=0.0000,0.6096,4.5695,4.5720,0.8636,0.9144 PERMIT_HOLE=F /
&OBST ID='New OBST.175' SURF_ID='FLOOR GRATE'
      XB=0.0000,0.6096,4.4171,4.4196,0.8636,0.9144 PERMIT_HOLE=F /
&OBST ID='New OBST.176' SURF_ID='FLOOR GRATE'
      XB=0.0000,0.6096,4.2647,4.2672,0.8636,0.9144 PERMIT_HOLE=F /
! ... 108 like lines cut
&OBST ID='New OBST.231' SURF_ID='CEILING'
      XB=0.0000,4.8768,0.0000,7.3152,3.9624,4.0132 /
&OBST ID='New OBST.232' SURF_ID='WALL'
      XB=0.0000,1.3716,6.5532,7.3152,2.7432,2.7940 /
&OBST ID='New OBST.233' SURF_ID='WALL'
      XB=3.5052,4.8768,6.5532,7.3152,2.7432,2.7940 /
&OBST ID='New OBST.234' SURF_ID='WALL'
      XB=0.0000,1.2192,1.9812,6.5532,2.7432,2.7940 /
&OBST ID='New OBST.235' SURF_ID='WALL'
      XB=3.6576,4.8768,1.9812,6.5532,2.7432,2.7940 /
&OBST ID='New OBST.236' SURF_ID='WALL'
      XB=0.0000,1.2192,1.9304,1.9812,0.9144,2.7940 /
&OBST ID='New OBST.237' SURF_ID='WALL'
      XB=3.6576,4.8768,1.9304,1.9812,0.9144,2.7940 /
&OBST ID='New OBST.238' SURF_ID='CABINET'
      XB=1.3208,1.3716,6.5532,7.3152,0.9144,2.7432 /
&OBST ID='New OBST.239' SURF_ID='CABINET'
      XB=3.5052,3.5560,6.5532,7.3152,0.9144,2.7432 /
&OBST ID='New OBST.240' SURF_ID='CABINET'
      XB=1.1684,1.2192,1.9812,6.5532,0.9144,2.7432 /
&OBST ID='New OBST.241' SURF_ID='CABINET'
      XB=3.6576,3.7084,1.9812,6.5532,0.9144,2.7432 /
&OBST ID='New OBST.242' SURF_ID='CABINET'
      XB=0.6096,0.6604,1.9812,7.3152,0.9144,2.7432 /
&OBST ID='New OBST.243' SURF_ID='CABINET'
      XB=4.2164,4.2672,1.9812,7.3152,0.9144,2.7432 /
&OBST ID='New OBST.244' SURF_ID='CABINET'
      XB=0.6096,1.3716,6.5532,6.6040,0.9144,2.7432 /
&OBST ID='New OBST.245' SURF_ID='CABINET'
      XB=3.5052,4.2672,6.5532,6.6040,0.9144,2.7432 /
&OBST ID='New OBST.246' SURF_ID='CABINET'
      XB=0.6096,1.2192,5.7912,5.8420,0.9144,2.7432 /
&OBST ID='New OBST.247' SURF_ID='CABINET'
      XB=3.6576,4.2672,5.7912,5.8420,0.9144,2.7432 /
&OBST ID='New OBST.248' SURF_ID='CABINET'
      XB=0.6096,1.2192,5.0292,5.0800,0.9144,2.7432 /
&OBST ID='New OBST.249' SURF_ID='CABINET'
      XB=3.6576,4.2672,5.0292,5.0800,0.9144,2.7432 /
&OBST ID='New OBST.250' SURF_ID='CABINET'
      XB=0.6096,1.2192,4.2672,4.3180,0.9144,2.7432 /
&OBST ID='New OBST.251' SURF_ID='CABINET'
      XB=3.6576,4.2672,4.2672,4.3180,0.9144,2.7432 /
&OBST ID='New OBST.252' SURF_ID='CABINET'
      XB=0.6096,1.2192,3.5052,3.5560,0.9144,2.7432 /
&OBST ID='New OBST.253' SURF_ID='CABINET'
      XB=3.6576,4.2672,3.5052,3.5560,0.9144,2.7432 /
&OBST ID='New OBST.254' SURF_ID='CABINET'
      XB=0.6096,1.2192,2.7432,2.7940,0.9144,2.7432 /
&OBST ID='New OBST.255' SURF_ID='CABINET'
      XB=3.6576,4.2672,2.7432,2.7940,0.9144,2.7432 /
&OBST ID='New OBST.256' SURF_ID='CABINET'
      XB=0.6096,1.2192,1.9812,2.0320,0.9144,2.7432 /
&OBST ID='New OBST.257' SURF_ID='CABINET'
      XB=3.6576,4.2672,1.9812,2.0320,0.9144,2.7432 /
&OBST ID='New OBST.258' SURF_ID='TRAY'
      XB=0.7112,1.1684,1.9812,7.3152,3.0480,3.0988 /
&OBST ID='New OBST.259' SURF_ID='TRAY'
      XB=0.7112,0.7620,1.9812,7.3152,3.0480,3.1496 /
&OBST ID='New OBST.260' SURF_ID='TRAY'
      XB=1.1176,1.1684,1.9812,7.3152,3.0480,3.1496 /
&OBST ID='New OBST.261' SURF_ID='TRAY'
      XB=3.7084,4.1656,1.9812,7.3152,3.0480,3.0988 /
&OBST ID='New OBST.262' SURF_ID='TRAY'
      XB=4.1148,4.1656,1.9812,7.3152,3.0480,3.1496 /
&OBST ID='New OBST.263' SURF_ID='TRAY'
      XB=3.7084,3.7592,1.9812,7.3152,3.0480,3.1496 /
&OBST ID='New OBST.264' SURF_ID='DUCT'
      XB=0.0000,4.8768,-2.2860,-0.0508,3.3528,4.8768 /
&OBST ID='New OBST.265' SURF_ID='DUCT'
      XB=1.7272,1.7297,-2.5400,-2.2860,3.3528,4.8768 /
&OBST ID='New OBST.266' SURF_ID='DUCT'
      XB=1.7780,1.7805,-2.5400,-2.2860,3.3528,4.8768 /
&OBST ID='New OBST.267' SURF_ID='DUCT'
      XB=1.8288,1.8313,-2.5400,-2.2860,3.3528,4.8768 /
&OBST ID='New OBST.268' SURF_ID='DUCT'
      XB=1.8796,1.8821,-2.5400,-2.2860,3.3528,4.8768 /
&OBST ID='New OBST.269' SURF_ID='DUCT'
      XB=1.9304,1.9329,-2.5400,-2.2860,3.3528,4.8768 /
&OBST ID='New OBST.270' SURF_ID='DUCT'
      XB=1.9812,1.9837,-2.5400,-2.2860,3.3528,4.8768 /
&OBST ID='New OBST.271' SURF_ID='DUCT'
      XB=2.0320,2.0345,-2.5400,-2.2860,3.3528,4.8768 /
&OBST ID='New OBST.272' SURF_ID='DUCT'
      XB=2.0828,2.0853,-2.5400,-2.2860,3.3528,4.8768 /
&OBST ID='New OBST.273' SURF_ID='DUCT'
      XB=2.1336,2.1361,-2.5400,-2.2860,3.3528,4.8768 /
&OBST ID='New OBST.274' SURF_ID='DUCT'
      XB=2.1844,2.1869,-2.5400,-2.2860,3.3528,4.8768 /
&OBST ID='New OBST.275' SURF_ID='DUCT'
      XB=2.2352,2.2377,-2.5400,-2.2860,3.3528,4.8768 /
&OBST ID='New OBST.276' SURF_ID='DUCT'
      XB=2.2860,2.2885,-2.5400,-2.2860,3.3528,4.8768 /
&OBST ID='New OBST.277' SURF_ID='DUCT'
      XB=2.3368,2.3393,-2.5400,-2.2860,3.3528,4.8768 /
&OBST ID='New OBST.278' SURF_ID='DUCT'
      XB=2.3876,2.3901,-2.5400,-2.2860,3.3528,4.8768 /
&OBST ID='New OBST.279' SURF_ID='DUCT'
      XB=2.4384,2.4409,-2.5400,-2.2860,3.3528,4.8768 /
&OBST ID='New OBST.280' SURF_ID='DUCT'
      XB=2.4892,2.4917,-2.5400,-2.2860,3.3528,4.8768 /
&OBST ID='New OBST.281' SURF_ID='DUCT'
      XB=2.5400,2.5425,-2.5400,-2.2860,3.3528,4.8768 /
&OBST ID='New OBST.282' SURF_ID='DUCT'
      XB=2.5908,2.5933,-2.5400,-2.2860,3.3528,4.8768 /
&OBST ID='New OBST.283' SURF_ID='DUCT'
! ... 89 like lines cut
&VENT ID='New VENT' SURF_ID='OPEN'
      XB=7.1120,7.1120,-6.0690,-1.8288,0.0000,1.2192 /
&VENT ID='New VENT.001' SURF_ID='DUCT'
      XB=1.6764,1.6764,-7.4676,-2.2860,3.3528,4.8768 /
&VENT ID='New VENT.002' SURF_ID='DUCT'
      XB=3.2004,3.2004,-7.4676,-2.2860,3.3528,4.8768 /
&VENT ID='New VENT.003' SURF_ID='DUCT'
      XB=1.6764,3.2004,-7.4676,-2.2860,3.3528,3.3528 /
&VENT ID='New VENT.004' SURF_ID='DUCT'
      XB=1.6764,3.2004,-7.4676,-2.2860,4.8768,4.8768 /
&VENT ID='New VENT.005' SURF_ID='FAN'
      XB=1.6764,3.2004,-7.4676,-7.4676,3.3528,4.8768 /
&VENT ID='New VENT.006' SURF_ID='DOOR'
      XB=1.6256,3.2512,0.0000,0.0000,1.2192,2.9464 /
&VENT ID='New VENT.007' SURF_ID='WINDOW'
      XB=0.0000,0.0000,5.4864,6.7056,0.0000,4.8768 /
&VENT ID='V-1001B' SURF_ID='CEILING'
      XB=0.0508,0.6096,0.0000,0.0508,3.9624,3.9624 /
&VENT ID='V-1001T' SURF_ID='CEILING'
      XB=0.0508,0.6096,0.0000,0.0508,4.0132,4.0132 /
&VENT ID='V-1002B' SURF_ID='CEILING'
      XB=0.6604,1.2192,0.0000,0.0508,3.9624,3.9624 /
&VENT ID='V-1002T' SURF_ID='CEILING'
      XB=0.6604,1.2192,0.0000,0.0508,4.0132,4.0132 /
&VENT ID='V-1004B' SURF_ID='CEILING'
      XB=1.8796,2.4384,0.0000,0.0508,3.9624,3.9624 /
&VENT ID='V-1004T' SURF_ID='CEILING'
      XB=1.8796,2.4384,0.0000,0.0508,4.0132,4.0132 /
&VENT ID='V-1005B' SURF_ID='CEILING'
      XB=2.4892,2.9972,0.0000,0.0508,3.9624,3.9624 /
&VENT ID='V-1005T' SURF_ID='CEILING'
      XB=2.4892,2.9972,0.0000,0.0508,4.0132,4.0132 /
&VENT ID='V-1007B' SURF_ID='CEILING'
      XB=3.6576,4.2164,0.0000,0.0508,3.9624,3.9624 /
&VENT ID='V-1007T' SURF_ID='CEILING'
      XB=3.6576,4.2164,0.0000,0.0508,4.0132,4.0132 /
&VENT ID='V-1008B' SURF_ID='CEILING'
      XB=4.2672,4.8260,0.0000,0.0508,3.9624,3.9624 /
&VENT ID='V-1008T' SURF_ID='CEILING'
      XB=4.2672,4.8260,0.0000,0.0508,4.0132,4.0132 /
&VENT ID='V-1009B' SURF_ID='CEILING'
      XB=0.0508,0.6096,0.6096,0.6604,3.9624,3.9624 /
&VENT ID='V-1009T' SURF_ID='CEILING'
      XB=0.0508,0.6096,0.6096,0.6604,4.0132,4.0132 /
&VENT ID='V-100B' SURF_ID='POLE' XB=1.8796,2.4384,7.2644,7.3152,0.8128,0.8128 /
&VENT ID='V-100T' SURF_ID='FLOOR' XB=1.8796,2.4384,7.2644,7.3152,0.9144,0.9144 /
&VENT ID='V-1010B' SURF_ID='CEILING'
      XB=0.6604,1.2192,0.6096,0.6604,3.9624,3.9624 /
&VENT ID='V-1010T' SURF_ID='CEILING'
      XB=0.6604,1.2192,0.6096,0.6604,4.0132,4.0132 /
&VENT ID='V-1015B' SURF_ID='CEILING'
      XB=3.6576,4.2164,0.6096,0.6604,3.9624,3.9624 /
&VENT ID='V-1015T' SURF_ID='CEILING'
      XB=3.6576,4.2164,0.6096,0.6604,4.0132,4.0132 /
&VENT ID='V-1016B' SURF_ID='CEILING'
      XB=4.2672,4.8260,0.6096,0.6604,3.9624,3.9624 /
&VENT ID='V-1016T' SURF_ID='CEILING'
      XB=4.2672,4.8260,0.6096,0.6604,4.0132,4.0132 /
&VENT ID='V-1017B' SURF_ID='CEILING'
      XB=0.0508,0.6096,1.2192,1.2700,3.9624,3.9624 /
&VENT ID='V-1017T' SURF_ID='CEILING'
      XB=0.0508,0.6096,1.2192,1.2700,4.0132,4.0132 /
&VENT ID='V-1018B' SURF_ID='CEILING'
      XB=0.6604,1.2192,1.2192,1.2700,3.9624,3.9624 /
&VENT ID='V-1018T' SURF_ID='CEILING'
      XB=0.6604,1.2192,1.2192,1.2700,4.0132,4.0132 /
&VENT ID='V-101B' SURF_ID='POLE' XB=2.4892,2.9972,7.2644,7.3152,0.8128,0.8128 /
&VENT ID='V-101T' SURF_ID='FLOOR' XB=2.4892,2.9972,7.2644,7.3152,0.9144,0.9144 /
&VENT ID='V-1023B' SURF_ID='CEILING'
      XB=3.6576,4.2164,1.2192,1.2700,3.9624,3.9624 /
&VENT ID='V-1023T' SURF_ID='CEILING'
      XB=3.6576,4.2164,1.2192,1.2700,4.0132,4.0132 /
&VENT ID='V-1024B' SURF_ID='CEILING'
      XB=4.2672,4.8260,1.2192,1.2700,3.9624,3.9624 /
&VENT ID='V-1024T' SURF_ID='CEILING'
      XB=4.2672,4.8260,1.2192,1.2700,4.0132,4.0132 /
&VENT ID='V-1025B' SURF_ID='CEILING'
      XB=0.0508,0.6096,1.8288,1.8796,3.9624,3.9624 /
&VENT ID='V-1025T' SURF_ID='CEILING'
      XB=0.0508,0.6096,1.8288,1.8796,4.0132,4.0132 /
&VENT ID='V-1026B' SURF_ID='CEILING'
      XB=0.6604,1.2192,1.8288,1.8796,3.9624,3.9624 /
&VENT ID='V-1026T' SURF_ID='CEILING'
      XB=0.6604,1.2192,1.8288,1.8796,4.0132,4.0132 /
&VENT ID='V-1028B' SURF_ID='CEILING'
      XB=1.8796,2.4384,1.8288,1.8796,3.9624,3.9624 /
&VENT ID='V-1028T' SURF_ID='CEILING'
      XB=1.8796,2.4384,1.8288,1.8796,4.0132,4.0132 /
&VENT ID='V-1029B' SURF_ID='CEILING'
      XB=2.4892,2.9972,1.8288,1.8796,3.9624,3.9624 /
&VENT ID='V-1029T' SURF_ID='CEILING'
      XB=2.4892,2.9972,1.8288,1.8796,4.0132,4.0132 /
&VENT ID='V-102B' SURF_ID='POLE' XB=3.0480,3.6068,7.2644,7.3152,0.8128,0.8128 /
&VENT ID='V-102T' SURF_ID='FLOOR' XB=3.0480,3.6068,7.2644,7.3152,0.9144,0.9144 /
&VENT ID='V-1031B' SURF_ID='CEILING'
      XB=3.6576,4.2164,1.8288,1.8796,3.9624,3.9624 /
&VENT ID='V-1031T' SURF_ID='CEILING'
      XB=3.6576,4.2164,1.8288,1.8796,4.0132,4.0132 /
&VENT ID='V-1032B' SURF_ID='CEILING'
      XB=4.2672,4.8260,1.8288,1.8796,3.9624,3.9624 /
&VENT ID='V-1032T' SURF_ID='CEILING'
      XB=4.2672,4.8260,1.8288,1.8796,4.0132,4.0132 /
&VENT ID='V-1033B' SURF_ID='CEILING'
      XB=0.0508,0.6096,2.4384,2.4892,3.9624,3.9624 /
&VENT ID='V-1033T' SURF_ID='CEILING'
      XB=0.0508,0.6096,2.4384,2.4892,4.0132,4.0132 /
&VENT ID='V-1034B' SURF_ID='CEILING'
      XB=0.6604,1.2192,2.4384,2.4892,3.9624,3.9624 /
&VENT ID='V-1034T' SURF_ID='CEILING'
      XB=0.6604,1.2192,2.4384,2.4892,4.0132,4.0132 /
&VENT ID='V-1035B' SURF_ID='CEILING'
      XB=1.2700,1.8288,2.4384,2.4892,3.9624,3.9624 /
&VENT ID='V-1035T' SURF_ID='CEILING'
      XB=1.2700,1.8288,2.4384,2.4892,4.0132,4.0132 /
&VENT ID='V-1038B' SURF_ID='CEILING'
      XB=3.0480,3.6068,2.4384,2.4892,3.9624,3.9624 /
&VENT ID='V-1038T' SURF_ID='CEILING'
      XB=3.0480,3.6068,2.4384,2.4892,4.0132,4.0132 /
&VENT ID='V-1039B' SURF_ID='CEILING'
      XB=3.6576,4.2164,2.4384,2.4892,3.9624,3.9624 /
&VENT ID='V-1039T' SURF_ID='CEILING'
      XB=3.6576,4.2164,2.4384,2.4892,4.0132,4.0132 /
&VENT ID='V-103B' SURF_ID='POLE' XB=3.6576,4.2164,7.2644,7.3152,0.8128,0.8128 /
&VENT ID='V-103T' SURF_ID='FLOOR' XB=3.6576,4.2164,7.2644,7.3152,0.9144,0.9144 /
&VENT ID='V-1040B' SURF_ID='CEILING'
      XB=4.2672,4.8260,2.4384,2.4892,3.9624,3.9624 /
&VENT ID='V-1040T' SURF_ID='CEILING'
      XB=4.2672,4.8260,2.4384,2.4892,4.0132,4.0132 /
&VENT ID='V-1041B' SURF_ID='CEILING'
      XB=0.0508,0.6096,3.0480,3.0988,3.9624,3.9624 /
&VENT ID='V-1041T' SURF_ID='CEILING'
      XB=0.0508,0.6096,3.0480,3.0988,4.0132,4.0132 /
&VENT ID='V-1042B' SURF_ID='CEILING'
      XB=0.6604,1.2192,3.0480,3.0988,3.9624,3.9624 /
&VENT ID='V-1042T' SURF_ID='CEILING'
      XB=0.6604,1.2192,3.0480,3.0988,4.0132,4.0132 /
&VENT ID='V-1047B' SURF_ID='CEILING'
      XB=3.6576,4.2164,3.0480,3.0988,3.9624,3.9624 /
&VENT ID='V-1047T' SURF_ID='CEILING'
      XB=3.6576,4.2164,3.0480,3.0988,4.0132,4.0132 /
&VENT ID='V-1048B' SURF_ID='CEILING'
      XB=4.2672,4.8260,3.0480,3.0988,3.9624,3.9624 /
&VENT ID='V-1048T' SURF_ID='CEILING'
      XB=4.2672,4.8260,3.0480,3.0988,4.0132,4.0132 /
&VENT ID='V-1049B' SURF_ID='CEILING'
      XB=0.0508,0.6096,3.6576,3.7084,3.9624,3.9624 /
&VENT ID='V-1049T' SURF_ID='CEILING'
      XB=0.0508,0.6096,3.6576,3.7084,4.0132,4.0132 /
&VENT ID='V-1050B' SURF_ID='CEILING'
      XB=0.6604,1.2192,3.6576,3.7084,3.9624,3.9624 /
&VENT ID='V-1050T' SURF_ID='CEILING'
      XB=0.6604,1.2192,3.6576,3.7084,4.0132,4.0132 /
&VENT ID='V-1052B' SURF_ID='CEILING'
      XB=1.8796,2.4384,3.6576,3.7084,3.9624,3.9624 /
&VENT ID='V-1052T' SURF_ID='CEILING'
      XB=1.8796,2.4384,3.6576,3.7084,4.0132,4.0132 /
&VENT ID='V-1053B' SURF_ID='CEILING'
      XB=2.4892,2.9972,3.6576,3.7084,3.9624,3.9624 /
&VENT ID='V-1053T' SURF_ID='CEILING'
      XB=2.4892,2.9972,3.6576,3.7084,4.0132,4.0132 /
&VENT ID='V-1055B' SURF_ID='CEILING'
      XB=3.6576,4.2164,3.6576,3.7084,3.9624,3.9624 /
&VENT ID='V-1055T' SURF_ID='CEILING'
      XB=3.6576,4.2164,3.6576,3.7084,4.0132,4.0132 /
&VENT ID='V-1056B' SURF_ID='CEILING'
      XB=4.2672,4.8260,3.6576,3.7084,3.9624,3.9624 /
&VENT ID='V-1056T' SURF_ID='CEILING'
      XB=4.2672,4.8260,3.6576,3.7084,4.0132,4.0132 /
&VENT ID='V-1057B' SURF_ID='CEILING'
      XB=0.0508,0.6096,4.2164,4.2672,3.9624,3.9624 /
&VENT ID='V-1057T' SURF_ID='CEILING'
      XB=0.0508,0.6096,4.2164,4.2672,4.0132,4.0132 /
&VENT ID='V-1058B' SURF_ID='CEILING'
      XB=0.6604,1.2192,4.2164,4.2672,3.9624,3.9624 /
&VENT ID='V-1058T' SURF_ID='CEILING'
      XB=0.6604,1.2192,4.2164,4.2672,4.0132,4.0132 /
&VENT ID='V-1059B' SURF_ID='CEILING'
      XB=1.2700,1.8288,4.2164,4.2672,3.9624,3.9624 /
&VENT ID='V-1059T' SURF_ID='CEILING'
      XB=1.2700,1.8288,4.2164,4.2672,4.0132,4.0132 /
&VENT ID='V-105B' SURF_ID='POLE' XB=0.0000,0.0508,0.0000,0.6096,0.8128,0.8128 /
&VENT ID='V-105T' SURF_ID='FLOOR' XB=0.0000,0.0508,0.0000,0.6096,0.9144,0.9144 /
&VENT ID='V-1062B' SURF_ID='CEILING'
      XB=3.0480,3.6068,4.2164,4.2672,3.9624,3.9624 /
&VENT ID='V-1062T' SURF_ID='CEILING'
      XB=3.0480,3.6068,4.2164,4.2672,4.0132,4.0132 /
&VENT ID='V-1063B' SURF_ID='CEILING'
      XB=3.6576,4.2164,4.2164,4.2672,3.9624,3.9624 /
&VENT ID='V-1063T' SURF_ID='CEILING'
      XB=3.6576,4.2164,4.2164,4.2672,4.0132,4.0132 /
&VENT ID='V-1064B' SURF_ID='CEILING'
      XB=4.2672,4.8260,4.2164,4.2672,3.9624,3.9624 /
&VENT ID='V-1064T' SURF_ID='CEILING'
      XB=4.2672,4.8260,4.2164,4.2672,4.0132,4.0132 /
&VENT ID='V-1065B' SURF_ID='CEILING'
      XB=0.0508,0.6096,4.8260,4.8768,3.9624,3.9624 /
&VENT ID='V-1065T' SURF_ID='CEILING'
      XB=0.0508,0.6096,4.8260,4.8768,4.0132,4.0132 /
&VENT ID='V-1066B' SURF_ID='CEILING'
      XB=0.6604,1.2192,4.8260,4.8768,3.9624,3.9624 /
&VENT ID='V-1066T' SURF_ID='CEILING'
      XB=0.6604,1.2192,4.8260,4.8768,4.0132,4.0132 /
&VENT ID='V-106B' SURF_ID='POLE' XB=0.6096,0.6604,0.0000,0.6096,0.8128,0.8128 /
&VENT ID='V-106T' SURF_ID='FLOOR' XB=0.6096,0.6604,0.0000,0.6096,0.9144,0.9144 /
&VENT ID='V-1071B' SURF_ID='CEILING'
      XB=3.6576,4.2164,4.8260,4.8768,3.9624,3.9624 /
&VENT ID='V-1071T' SURF_ID='CEILING'
      XB=3.6576,4.2164,4.8260,4.8768,4.0132,4.0132 /
&VENT ID='V-1072B' SURF_ID='CEILING'
      XB=4.2672,4.8260,4.8260,4.8768,3.9624,3.9624 /
&VENT ID='V-1072T' SURF_ID='CEILING'
      XB=4.2672,4.8260,4.8260,4.8768,4.0132,4.0132 /
&VENT ID='V-1073B' SURF_ID='CEILING'
      XB=0.0508,0.6096,5.4356,5.4864,3.9624,3.9624 /
&VENT ID='V-1073T' SURF_ID='CEILING'
      XB=0.0508,0.6096,5.4356,5.4864,4.0132,4.0132 /
&VENT ID='V-1074B' SURF_ID='CEILING'
      XB=0.6604,1.2192,5.4356,5.4864,3.9624,3.9624 /
&VENT ID='V-1074T' SURF_ID='CEILING'
      XB=0.6604,1.2192,5.4356,5.4864,4.0132,4.0132 /
&VENT ID='V-1076B' SURF_ID='CEILING'
      XB=1.8796,2.4384,5.4356,5.4864,3.9624,3.9624 /
&VENT ID='V-1076T' SURF_ID='CEILING'
      XB=1.8796,2.4384,5.4356,5.4864,4.0132,4.0132 /
&VENT ID='V-1077B' SURF_ID='CEILING'
      XB=2.4892,2.9972,5.4356,5.4864,3.9624,3.9624 /
&VENT ID='V-1077T' SURF_ID='CEILING'
      XB=2.4892,2.9972,5.4356,5.4864,4.0132,4.0132 /
&VENT ID='V-1079B' SURF_ID='CEILING'
      XB=3.6576,4.2164,5.4356,5.4864,3.9624,3.9624 /
&VENT ID='V-1079T' SURF_ID='CEILING'
      XB=3.6576,4.2164,5.4356,5.4864,4.0132,4.0132 /
&VENT ID='V-107B' SURF_ID='POLE' XB=1.2192,1.2700,0.0000,0.6096,0.8128,0.8128 /
&VENT ID='V-107T' SURF_ID='FLOOR' XB=1.2192,1.2700,0.0000,0.6096,0.9144,0.9144 /
&VENT ID='V-1080B' SURF_ID='CEILING'
      XB=4.2672,4.8260,5.4356,5.4864,3.9624,3.9624 /
&VENT ID='V-1080T' SURF_ID='CEILING'
      XB=4.2672,4.8260,5.4356,5.4864,4.0132,4.0132 /
&VENT ID='V-1081B' SURF_ID='CEILING'
      XB=0.0508,0.6096,6.0452,6.0960,3.9624,3.9624 /
&VENT ID='V-1081T' SURF_ID='CEILING'
      XB=0.0508,0.6096,6.0452,6.0960,4.0132,4.0132 /
&VENT ID='V-1082B' SURF_ID='CEILING'
      XB=0.6604,1.2192,6.0452,6.0960,3.9624,3.9624 /
&VENT ID='V-1082T' SURF_ID='CEILING'
      XB=0.6604,1.2192,6.0452,6.0960,4.0132,4.0132 /
&VENT ID='V-1083B' SURF_ID='CEILING'
      XB=1.2700,1.8288,6.0452,6.0960,3.9624,3.9624 /
&VENT ID='V-1083T' SURF_ID='CEILING'
      XB=1.2700,1.8288,6.0452,6.0960,4.0132,4.0132 /
&VENT ID='V-1086B' SURF_ID='CEILING'
      XB=3.0480,3.6068,6.0452,6.0960,3.9624,3.9624 /
&VENT ID='V-1086T' SURF_ID='CEILING'
      XB=3.0480,3.6068,6.0452,6.0960,4.0132,4.0132 /
&VENT ID='V-1087B' SURF_ID='CEILING'
      XB=3.6576,4.2164,6.0452,6.0960,3.9624,3.9624 /
&VENT ID='V-1087T' SURF_ID='CEILING'
      XB=3.6576,4.2164,6.0452,6.0960,4.0132,4.0132 /
&VENT ID='V-1088B' SURF_ID='CEILING'
      XB=4.2672,4.8260,6.0452,6.0960,3.9624,3.9624 /
&VENT ID='V-1088T' SURF_ID='CEILING'
      XB=4.2672,4.8260,6.0452,6.0960,4.0132,4.0132 /
&VENT ID='V-1089B' SURF_ID='CEILING'
      XB=0.0508,0.6096,6.6548,6.7056,3.9624,3.9624 /
&VENT ID='V-1089T' SURF_ID='CEILING'
      XB=0.0508,0.6096,6.6548,6.7056,4.0132,4.0132 /
&VENT ID='V-108B' SURF_ID='POLE' XB=1.8288,1.8796,0.0000,0.6096,0.8128,0.8128 /
&VENT ID='V-108T' SURF_ID='FLOOR' XB=1.8288,1.8796,0.0000,0.6096,0.9144,0.9144 /
&VENT ID='V-1090B' SURF_ID='CEILING'
      XB=0.6604,1.2192,6.6548,6.7056,3.9624,3.9624 /
&VENT ID='V-1090T' SURF_ID='CEILING'
      XB=0.6604,1.2192,6.6548,6.7056,4.0132,4.0132 /
&VENT ID='V-1095B' SURF_ID='CEILING'
      XB=3.6576,4.2164,6.6548,6.7056,3.9624,3.9624 /
&VENT ID='V-1095T' SURF_ID='CEILING'
      XB=3.6576,4.2164,6.6548,6.7056,4.0132,4.0132 /
&VENT ID='V-1096B' SURF_ID='CEILING'
      XB=4.2672,4.8260,6.6548,6.7056,3.9624,3.9624 /
&VENT ID='V-1096T' SURF_ID='CEILING'
      XB=4.2672,4.8260,6.6548,6.7056,4.0132,4.0132 /
&VENT ID='V-1097B' SURF_ID='CEILING'
      XB=0.0508,0.6096,7.2644,7.3152,3.9624,3.9624 /
&VENT ID='V-1097T' SURF_ID='CEILING'
      XB=0.0508,0.6096,7.2644,7.3152,4.0132,4.0132 /
&VENT ID='V-1098B' SURF_ID='CEILING'
      XB=0.6604,1.2192,7.2644,7.3152,3.9624,3.9624 /
&VENT ID='V-1098T' SURF_ID='CEILING'
      XB=0.6604,1.2192,7.2644,7.3152,4.0132,4.0132 /
&VENT ID='V-109B' SURF_ID='POLE' XB=2.4384,2.4892,0.0000,0.6096,0.8128,0.8128 /
&VENT ID='V-109T' SURF_ID='FLOOR' XB=2.4384,2.4892,0.0000,0.6096,0.9144,0.9144 /
&VENT ID='V-10B' SURF_ID='POLE' XB=0.6604,1.2192,0.6096,0.6604,0.8128,0.8128 /
&VENT ID='V-10T' SURF_ID='FLOOR' XB=0.6604,1.2192,0.6096,0.6604,0.9144,0.9144 /
&VENT ID='V-1100B' SURF_ID='CEILING'
      XB=1.8796,2.4384,7.2644,7.3152,3.9624,3.9624 /
&VENT ID='V-1100T' SURF_ID='CEILING'
      XB=1.8796,2.4384,7.2644,7.3152,4.0132,4.0132 /
&VENT ID='V-1101B' SURF_ID='CEILING'
      XB=2.4892,2.9972,7.2644,7.3152,3.9624,3.9624 /
&VENT ID='V-1101T' SURF_ID='CEILING'
      XB=2.4892,2.9972,7.2644,7.3152,4.0132,4.0132 /
&VENT ID='V-1103B' SURF_ID='CEILING'
      XB=3.6576,4.2164,7.2644,7.3152,3.9624,3.9624 /
&VENT ID='V-1103T' SURF_ID='CEILING'
      XB=3.6576,4.2164,7.2644,7.3152,4.0132,4.0132 /
&VENT ID='V-1104B' SURF_ID='CEILING'
      XB=4.2672,4.8260,7.2644,7.3152,3.9624,3.9624 /
&VENT ID='V-1104T' SURF_ID='CEILING'
      XB=4.2672,4.8260,7.2644,7.3152,4.0132,4.0132 /
&VENT ID='V-1105B' SURF_ID='CEILING'
      XB=0.0000,0.0508,0.0000,0.6096,3.9624,3.9624 /
&VENT ID='V-1105T' SURF_ID='CEILING'
      XB=0.0000,0.0508,0.0000,0.6096,4.0132,4.0132 /
&VENT ID='V-1106B' SURF_ID='CEILING'
      XB=0.6096,0.6604,0.0000,0.6096,3.9624,3.9624 /
&VENT ID='V-1106T' SURF_ID='CEILING'
      XB=0.6096,0.6604,0.0000,0.6096,4.0132,4.0132 /
&VENT ID='V-1109B' SURF_ID='CEILING'
      XB=2.4384,2.4892,0.0000,0.6096,3.9624,3.9624 /
&VENT ID='V-1109T' SURF_ID='CEILING'
      XB=2.4384,2.4892,0.0000,0.6096,4.0132,4.0132 /
&VENT ID='V-110B' SURF_ID='POLE' XB=2.9972,3.0480,0.0000,0.6096,0.8128,0.8128 /
&VENT ID='V-110T' SURF_ID='FLOOR' XB=2.9972,3.0480,0.0000,0.6096,0.9144,0.9144 /
&VENT ID='V-1112B' SURF_ID='CEILING'
      XB=4.2164,4.2672,0.0000,0.6096,3.9624,3.9624 /
&VENT ID='V-1112T' SURF_ID='CEILING'
      XB=4.2164,4.2672,0.0000,0.6096,4.0132,4.0132 /
&VENT ID='V-1113B' SURF_ID='CEILING'
      XB=4.8260,4.8768,0.0000,0.6096,3.9624,3.9624 /
&VENT ID='V-1113T' SURF_ID='CEILING'
      XB=4.8260,4.8768,0.0000,0.6096,4.0132,4.0132 /
&VENT ID='V-1114B' SURF_ID='CEILING'
      XB=0.0000,0.0508,0.6096,1.2192,3.9624,3.9624 /
&VENT ID='V-1114T' SURF_ID='CEILING'
      XB=0.0000,0.0508,0.6096,1.2192,4.0132,4.0132 /
&VENT ID='V-1115B' SURF_ID='CEILING'
      XB=0.6096,0.6604,0.6096,1.2192,3.9624,3.9624 /
&VENT ID='V-1115T' SURF_ID='CEILING'
      XB=0.6096,0.6604,0.6096,1.2192,4.0132,4.0132 /
&VENT ID='V-1116B' SURF_ID='CEILING'
      XB=1.2192,1.2700,0.6096,1.2192,3.9624,3.9624 /
&VENT ID='V-1116T' SURF_ID='CEILING'
      XB=1.2192,1.2700,0.6096,1.2192,4.0132,4.0132 /
&VENT ID='V-111B' SURF_ID='POLE' XB=3.6068,3.6576,0.0000,0.6096,0.8128,0.8128 /
&VENT ID='V-111T' SURF_ID='FLOOR' XB=3.6068,3.6576,0.0000,0.6096,0.9144,0.9144 /
&VENT ID='V-1120B' SURF_ID='CEILING'
      XB=3.6068,3.6576,0.6096,1.2192,3.9624,3.9624 /
&VENT ID='V-1120T' SURF_ID='CEILING'
      XB=3.6068,3.6576,0.6096,1.2192,4.0132,4.0132 /
&VENT ID='V-1121B' SURF_ID='CEILING'
      XB=4.2164,4.2672,0.6096,1.2192,3.9624,3.9624 /
&VENT ID='V-1121T' SURF_ID='CEILING'
      XB=4.2164,4.2672,0.6096,1.2192,4.0132,4.0132 /
&VENT ID='V-1122B' SURF_ID='CEILING'
      XB=4.8260,4.8768,0.6096,1.2192,3.9624,3.9624 /
&VENT ID='V-1122T' SURF_ID='CEILING'
      XB=4.8260,4.8768,0.6096,1.2192,4.0132,4.0132 /
&VENT ID='V-1123B' SURF_ID='CEILING'
      XB=0.0000,0.0508,1.2192,1.8288,3.9624,3.9624 /
&VENT ID='V-1123T' SURF_ID='CEILING'
      XB=0.0000,0.0508,1.2192,1.8288,4.0132,4.0132 /
&VENT ID='V-1124B' SURF_ID='CEILING'
      XB=0.6096,0.6604,1.2192,1.8288,3.9624,3.9624 /
&VENT ID='V-1124T' SURF_ID='CEILING'
      XB=0.6096,0.6604,1.2192,1.8288,4.0132,4.0132 /
&VENT ID='V-1127B' SURF_ID='CEILING'
      XB=2.4384,2.4892,1.2192,1.8288,3.9624,3.9624 /
&VENT ID='V-1127T' SURF_ID='CEILING'
      XB=2.4384,2.4892,1.2192,1.8288,4.0132,4.0132 /
&VENT ID='V-112B' SURF_ID='POLE' XB=4.2164,4.2672,0.0000,0.6096,0.8128,0.8128 /
&VENT ID='V-112T' SURF_ID='FLOOR' XB=4.2164,4.2672,0.0000,0.6096,0.9144,0.9144 /
&VENT ID='V-1130B' SURF_ID='CEILING'
      XB=4.2164,4.2672,1.2192,1.8288,3.9624,3.9624 /
&VENT ID='V-1130T' SURF_ID='CEILING'
      XB=4.2164,4.2672,1.2192,1.8288,4.0132,4.0132 /
&VENT ID='V-1131B' SURF_ID='CEILING'
      XB=4.8260,4.8768,1.2192,1.8288,3.9624,3.9624 /
&VENT ID='V-1131T' SURF_ID='CEILING'
      XB=4.8260,4.8768,1.2192,1.8288,4.0132,4.0132 /
&VENT ID='V-1132B' SURF_ID='CEILING'
      XB=0.0000,0.0508,1.8288,2.4384,3.9624,3.9624 /
&VENT ID='V-1132T' SURF_ID='CEILING'
      XB=0.0000,0.0508,1.8288,2.4384,4.0132,4.0132 /
&VENT ID='V-1133B' SURF_ID='CEILING'
      XB=0.6096,0.6604,1.8288,2.4384,3.9624,3.9624 /
&VENT ID='V-1133T' SURF_ID='CEILING'
      XB=0.6096,0.6604,1.8288,2.4384,4.0132,4.0132 /
&VENT ID='V-1134B' SURF_ID='CEILING'
      XB=1.2192,1.2700,1.8288,2.4384,3.9624,3.9624 /
&VENT ID='V-1134T' SURF_ID='CEILING'
      XB=1.2192,1.2700,1.8288,2.4384,4.0132,4.0132 /
&VENT ID='V-1135B' SURF_ID='CEILING'
      XB=1.8288,1.8796,1.8288,2.4384,3.9624,3.9624 /
&VENT ID='V-1135T' SURF_ID='CEILING'
      XB=1.8288,1.8796,1.8288,2.4384,4.0132,4.0132 /
&VENT ID='V-1136B' SURF_ID='CEILING'
      XB=2.4384,2.4892,1.8288,2.4384,3.9624,3.9624 /
&VENT ID='V-1136T' SURF_ID='CEILING'
      XB=2.4384,2.4892,1.8288,2.4384,4.0132,4.0132 /
&VENT ID='V-1137B' SURF_ID='CEILING'
      XB=2.9972,3.0480,1.8288,2.4384,3.9624,3.9624 /
&VENT ID='V-1137T' SURF_ID='CEILING'
      XB=2.9972,3.0480,1.8288,2.4384,4.0132,4.0132 /
&VENT ID='V-1138B' SURF_ID='CEILING'
      XB=3.6068,3.6576,1.8288,2.4384,3.9624,3.9624 /
&VENT ID='V-1138T' SURF_ID='CEILING'
      XB=3.6068,3.6576,1.8288,2.4384,4.0132,4.0132 /
&VENT ID='V-1139B' SURF_ID='CEILING'
      XB=4.2164,4.2672,1.8288,2.4384,3.9624,3.9624 /
&VENT ID='V-1139T' SURF_ID='CEILING'
      XB=4.2164,4.2672,1.8288,2.4384,4.0132,4.0132 /
&VENT ID='V-113B' SURF_ID='POLE' XB=4.8260,4.8768,0.0000,0.6096,0.8128,0.8128 /
&VENT ID='V-113T' SURF_ID='FLOOR' XB=4.8260,4.8768,0.0000,0.6096,0.9144,0.9144 /
&VENT ID='V-1140B' SURF_ID='CEILING'
      XB=4.8260,4.8768,1.8288,2.4384,3.9624,3.9624 /
&VENT ID='V-1140T' SURF_ID='CEILING'
      XB=4.8260,4.8768,1.8288,2.4384,4.0132,4.0132 /
&VENT ID='V-1141B' SURF_ID='CEILING'
      XB=0.0000,0.0508,2.4384,3.0480,3.9624,3.9624 /
&VENT ID='V-1141T' SURF_ID='CEILING'
      XB=0.0000,0.0508,2.4384,3.0480,4.0132,4.0132 /
&VENT ID='V-1142B' SURF_ID='CEILING'
      XB=0.6096,0.6604,2.4384,3.0480,3.9624,3.9624 /
&VENT ID='V-1142T' SURF_ID='CEILING'
      XB=0.6096,0.6604,2.4384,3.0480,4.0132,4.0132 /
&VENT ID='V-1143B' SURF_ID='CEILING'
      XB=1.2192,1.2700,2.4384,3.0480,3.9624,3.9624 /
&VENT ID='V-1143T' SURF_ID='CEILING'
      XB=1.2192,1.2700,2.4384,3.0480,4.0132,4.0132 /
&VENT ID='V-1147B' SURF_ID='CEILING'
      XB=3.6068,3.6576,2.4384,3.0480,3.9624,3.9624 /
&VENT ID='V-1147T' SURF_ID='CEILING'
      XB=3.6068,3.6576,2.4384,3.0480,4.0132,4.0132 /
&VENT ID='V-1148B' SURF_ID='CEILING'
      XB=4.2164,4.2672,2.4384,3.0480,3.9624,3.9624 /
&VENT ID='V-1148T' SURF_ID='CEILING'
      XB=4.2164,4.2672,2.4384,3.0480,4.0132,4.0132 /
&VENT ID='V-1149B' SURF_ID='CEILING'
      XB=4.8260,4.8768,2.4384,3.0480,3.9624,3.9624 /
&VENT ID='V-1149T' SURF_ID='CEILING'
      XB=4.8260,4.8768,2.4384,3.0480,4.0132,4.0132 /
&VENT ID='V-114B' SURF_ID='POLE' XB=0.0000,0.0508,0.6096,1.2192,0.8128,0.8128 /
&VENT ID='V-114T' SURF_ID='FLOOR' XB=0.0000,0.0508,0.6096,1.2192,0.9144,0.9144 /
&VENT ID='V-1150B' SURF_ID='CEILING'
      XB=0.0000,0.0508,3.0480,3.6576,3.9624,3.9624 /
&VENT ID='V-1150T' SURF_ID='CEILING'
      XB=0.0000,0.0508,3.0480,3.6576,4.0132,4.0132 /
&VENT ID='V-1151B' SURF_ID='CEILING'
      XB=0.6096,0.6604,3.0480,3.6576,3.9624,3.9624 /
&VENT ID='V-1151T' SURF_ID='CEILING'
      XB=0.6096,0.6604,3.0480,3.6576,4.0132,4.0132 /
&VENT ID='V-1154B' SURF_ID='CEILING'
      XB=2.4384,2.4892,3.0480,3.6576,3.9624,3.9624 /
&VENT ID='V-1154T' SURF_ID='CEILING'
      XB=2.4384,2.4892,3.0480,3.6576,4.0132,4.0132 /
&VENT ID='V-1157B' SURF_ID='CEILING'
      XB=4.2164,4.2672,3.0480,3.6576,3.9624,3.9624 /
&VENT ID='V-1157T' SURF_ID='CEILING'
      XB=4.2164,4.2672,3.0480,3.6576,4.0132,4.0132 /
&VENT ID='V-1158B' SURF_ID='CEILING'
      XB=4.8260,4.8768,3.0480,3.6576,3.9624,3.9624 /
&VENT ID='V-1158T' SURF_ID='CEILING'
      XB=4.8260,4.8768,3.0480,3.6576,4.0132,4.0132 /
&VENT ID='V-1159B' SURF_ID='CEILING'
      XB=0.0000,0.0508,3.6576,4.2672,3.9624,3.9624 /
&VENT ID='V-1159T' SURF_ID='CEILING'
      XB=0.0000,0.0508,3.6576,4.2672,4.0132,4.0132 /
&VENT ID='V-115B' SURF_ID='POLE' XB=0.6096,0.6604,0.6096,1.2192,0.8128,0.8128 /
&VENT ID='V-115T' SURF_ID='FLOOR' XB=0.6096,0.6604,0.6096,1.2192,0.9144,0.9144 /
&VENT ID='V-1160B' SURF_ID='CEILING'
      XB=0.6096,0.6604,3.6576,4.2672,3.9624,3.9624 /
&VENT ID='V-1160T' SURF_ID='CEILING'
      XB=0.6096,0.6604,3.6576,4.2672,4.0132,4.0132 /
&VENT ID='V-1161B' SURF_ID='CEILING'
      XB=1.2192,1.2700,3.6576,4.2672,3.9624,3.9624 /
&VENT ID='V-1161T' SURF_ID='CEILING'
      XB=1.2192,1.2700,3.6576,4.2672,4.0132,4.0132 /
&VENT ID='V-1162B' SURF_ID='CEILING'
      XB=1.8288,1.8796,3.6576,4.2672,3.9624,3.9624 /
&VENT ID='V-1162T' SURF_ID='CEILING'
      XB=1.8288,1.8796,3.6576,4.2672,4.0132,4.0132 /
&VENT ID='V-1163B' SURF_ID='CEILING'
      XB=2.4384,2.4892,3.6576,4.2672,3.9624,3.9624 /
&VENT ID='V-1163T' SURF_ID='CEILING'
      XB=2.4384,2.4892,3.6576,4.2672,4.0132,4.0132 /
&VENT ID='V-1164B' SURF_ID='CEILING'
      XB=2.9972,3.0480,3.6576,4.2672,3.9624,3.9624 /
&VENT ID='V-1164T' SURF_ID='CEILING'
      XB=2.9972,3.0480,3.6576,4.2672,4.0132,4.0132 /
&VENT ID='V-1165B' SURF_ID='CEILING'
      XB=3.6068,3.6576,3.6576,4.2672,3.9624,3.9624 /
&VENT ID='V-1165T' SURF_ID='CEILING'
      XB=3.6068,3.6576,3.6576,4.2672,4.0132,4.0132 /
&VENT ID='V-1166B' SURF_ID='CEILING'
      XB=4.2164,4.2672,3.6576,4.2672,3.9624,3.9624 /
&VENT ID='V-1166T' SURF_ID='CEILING'
      XB=4.2164,4.2672,3.6576,4.2672,4.0132,4.0132 /
&VENT ID='V-1167B' SURF_ID='CEILING'
      XB=4.8260,4.8768,3.6576,4.2672,3.9624,3.9624 /
&VENT ID='V-1167T' SURF_ID='CEILING'
      XB=4.8260,4.8768,3.6576,4.2672,4.0132,4.0132 /
&VENT ID='V-1168B' SURF_ID='CEILING'
      XB=0.0000,0.0508,4.2672,4.8768,3.9624,3.9624 /
&VENT ID='V-1168T' SURF_ID='CEILING'
      XB=0.0000,0.0508,4.2672,4.8768,4.0132,4.0132 /
&VENT ID='V-1169B' SURF_ID='CEILING'
      XB=0.6096,0.6604,4.2672,4.8768,3.9624,3.9624 /
&VENT ID='V-1169T' SURF_ID='CEILING'
      XB=0.6096,0.6604,4.2672,4.8768,4.0132,4.0132 /
&VENT ID='V-116B' SURF_ID='POLE' XB=1.2192,1.2700,0.6096,1.2192,0.8128,0.8128 /
&VENT ID='V-116T' SURF_ID='FLOOR' XB=1.2192,1.2700,0.6096,1.2192,0.9144,0.9144 /
&VENT ID='V-1170B' SURF_ID='CEILING'
      XB=1.2192,1.2700,4.2672,4.8768,3.9624,3.9624 /
&VENT ID='V-1170T' SURF_ID='CEILING'
      XB=1.2192,1.2700,4.2672,4.8768,4.0132,4.0132 /
&VENT ID='V-1174B' SURF_ID='CEILING'
      XB=3.6068,3.6576,4.2672,4.8768,3.9624,3.9624 /
&VENT ID='V-1174T' SURF_ID='CEILING'
      XB=3.6068,3.6576,4.2672,4.8768,4.0132,4.0132 /
&VENT ID='V-1175B' SURF_ID='CEILING'
      XB=4.2164,4.2672,4.2672,4.8768,3.9624,3.9624 /
&VENT ID='V-1175T' SURF_ID='CEILING'
      XB=4.2164,4.2672,4.2672,4.8768,4.0132,4.0132 /
&VENT ID='V-1176B' SURF_ID='CEILING'
      XB=4.8260,4.8768,4.2672,4.8768,3.9624,3.9624 /
&VENT ID='V-1176T' SURF_ID='CEILING'
      XB=4.8260,4.8768,4.2672,4.8768,4.0132,4.0132 /
&VENT ID='V-1177B' SURF_ID='CEILING'
      XB=0.0000,0.0508,4.8768,5.4864,3.9624,3.9624 /
&VENT ID='V-1177T' SURF_ID='CEILING'
      XB=0.0000,0.0508,4.8768,5.4864,4.0132,4.0132 /
&VENT ID='V-1178B' SURF_ID='CEILING'
      XB=0.6096,0.6604,4.8768,5.4864,3.9624,3.9624 /
&VENT ID='V-1178T' SURF_ID='CEILING'
      XB=0.6096,0.6604,4.8768,5.4864,4.0132,4.0132 /
&VENT ID='V-117B' SURF_ID='POLE' XB=1.8288,1.8796,0.6096,1.2192,0.8128,0.8128 /
&VENT ID='V-117T' SURF_ID='FLOOR' XB=1.8288,1.8796,0.6096,1.2192,0.9144,0.9144 /
&VENT ID='V-1181B' SURF_ID='CEILING'
      XB=2.4384,2.4892,4.8768,5.4864,3.9624,3.9624 /
&VENT ID='V-1181T' SURF_ID='CEILING'
      XB=2.4384,2.4892,4.8768,5.4864,4.0132,4.0132 /
&VENT ID='V-1184B' SURF_ID='CEILING'
      XB=4.2164,4.2672,4.8768,5.4864,3.9624,3.9624 /
&VENT ID='V-1184T' SURF_ID='CEILING'
      XB=4.2164,4.2672,4.8768,5.4864,4.0132,4.0132 /
&VENT ID='V-1185B' SURF_ID='CEILING'
      XB=4.8260,4.8768,4.8768,5.4864,3.9624,3.9624 /
&VENT ID='V-1185T' SURF_ID='CEILING'
      XB=4.8260,4.8768,4.8768,5.4864,4.0132,4.0132 /
&VENT ID='V-1186B' SURF_ID='CEILING'
      XB=0.0000,0.0508,5.4864,6.0960,3.9624,3.9624 /
&VENT ID='V-1186T' SURF_ID='CEILING'
      XB=0.0000,0.0508,5.4864,6.0960,4.0132,4.0132 /
&VENT ID='V-1187B' SURF_ID='CEILING'
      XB=0.6096,0.6604,5.4864,6.0960,3.9624,3.9624 /
&VENT ID='V-1187T' SURF_ID='CEILING'
      XB=0.6096,0.6604,5.4864,6.0960,4.0132,4.0132 /
&VENT ID='V-1188B' SURF_ID='CEILING'
      XB=1.2192,1.2700,5.4864,6.0960,3.9624,3.9624 /
&VENT ID='V-1188T' SURF_ID='CEILING'
      XB=1.2192,1.2700,5.4864,6.0960,4.0132,4.0132 /
&VENT ID='V-1189B' SURF_ID='CEILING'
      XB=1.8288,1.8796,5.4864,6.0960,3.9624,3.9624 /
&VENT ID='V-1189T' SURF_ID='CEILING'
      XB=1.8288,1.8796,5.4864,6.0960,4.0132,4.0132 /
&VENT ID='V-118B' SURF_ID='POLE' XB=2.4384,2.4892,0.6096,1.2192,0.8128,0.8128 /
&VENT ID='V-118T' SURF_ID='FLOOR' XB=2.4384,2.4892,0.6096,1.2192,0.9144,0.9144 /
&VENT ID='V-1190B' SURF_ID='CEILING'
      XB=2.4384,2.4892,5.4864,6.0960,3.9624,3.9624 /
&VENT ID='V-1190T' SURF_ID='CEILING'
      XB=2.4384,2.4892,5.4864,6.0960,4.0132,4.0132 /
&VENT ID='V-1191B' SURF_ID='CEILING'
      XB=2.9972,3.0480,5.4864,6.0960,3.9624,3.9624 /
&VENT ID='V-1191T' SURF_ID='CEILING'
      XB=2.9972,3.0480,5.4864,6.0960,4.0132,4.0132 /
&VENT ID='V-1192B' SURF_ID='CEILING'
      XB=3.6068,3.6576,5.4864,6.0960,3.9624,3.9624 /
&VENT ID='V-1192T' SURF_ID='CEILING'
      XB=3.6068,3.6576,5.4864,6.0960,4.0132,4.0132 /
&VENT ID='V-1193B' SURF_ID='CEILING'
      XB=4.2164,4.2672,5.4864,6.0960,3.9624,3.9624 /
&VENT ID='V-1193T' SURF_ID='CEILING'
      XB=4.2164,4.2672,5.4864,6.0960,4.0132,4.0132 /
&VENT ID='V-1194B' SURF_ID='CEILING'
      XB=4.8260,4.8768,5.4864,6.0960,3.9624,3.9624 /
&VENT ID='V-1194T' SURF_ID='CEILING'
      XB=4.8260,4.8768,5.4864,6.0960,4.0132,4.0132 /
&VENT ID='V-1195B' SURF_ID='CEILING'
      XB=0.0000,0.0508,6.0960,6.7056,3.9624,3.9624 /
&VENT ID='V-1195T' SURF_ID='CEILING'
      XB=0.0000,0.0508,6.0960,6.7056,4.0132,4.0132 /
&VENT ID='V-1196B' SURF_ID='CEILING'
      XB=0.6096,0.6604,6.0960,6.7056,3.9624,3.9624 /
&VENT ID='V-1196T' SURF_ID='CEILING'
      XB=0.6096,0.6604,6.0960,6.7056,4.0132,4.0132 /
&VENT ID='V-1197B' SURF_ID='CEILING'
      XB=1.2192,1.2700,6.0960,6.7056,3.9624,3.9624 /
&VENT ID='V-1197T' SURF_ID='CEILING'
      XB=1.2192,1.2700,6.0960,6.7056,4.0132,4.0132 /
&VENT ID='V-119B' SURF_ID='POLE' XB=2.9972,3.0480,0.6096,1.2192,0.8128,0.8128 /
&VENT ID='V-119T' SURF_ID='FLOOR' XB=2.9972,3.0480,0.6096,1.2192,0.9144,0.9144 /
&VENT ID='V-11B' SURF_ID='POLE' XB=1.2700,1.8288,0.6096,0.6604,0.8128,0.8128 /
&VENT ID='V-11T' SURF_ID='FLOOR' XB=1.2700,1.8288,0.6096,0.6604,0.9144,0.9144 /
&VENT ID='V-1201B' SURF_ID='CEILING'
      XB=3.6068,3.6576,6.0960,6.7056,3.9624,3.9624 /
&VENT ID='V-1201T' SURF_ID='CEILING'
      XB=3.6068,3.6576,6.0960,6.7056,4.0132,4.0132 /
&VENT ID='V-1202B' SURF_ID='CEILING'
      XB=4.2164,4.2672,6.0960,6.7056,3.9624,3.9624 /
&VENT ID='V-1202T' SURF_ID='CEILING'
      XB=4.2164,4.2672,6.0960,6.7056,4.0132,4.0132 /
&VENT ID='V-1203B' SURF_ID='CEILING'
      XB=4.8260,4.8768,6.0960,6.7056,3.9624,3.9624 /
&VENT ID='V-1203T' SURF_ID='CEILING'
      XB=4.8260,4.8768,6.0960,6.7056,4.0132,4.0132 /
&VENT ID='V-1204B' SURF_ID='CEILING'
      XB=0.0000,0.0508,6.7056,7.3152,3.9624,3.9624 /
&VENT ID='V-1204T' SURF_ID='CEILING'
      XB=0.0000,0.0508,6.7056,7.3152,4.0132,4.0132 /
&VENT ID='V-1205B' SURF_ID='CEILING'
      XB=0.6096,0.6604,6.7056,7.3152,3.9624,3.9624 /
&VENT ID='V-1205T' SURF_ID='CEILING'
      XB=0.6096,0.6604,6.7056,7.3152,4.0132,4.0132 /
&VENT ID='V-1208B' SURF_ID='CEILING'
      XB=2.4384,2.4892,6.7056,7.3152,3.9624,3.9624 /
&VENT ID='V-1208T' SURF_ID='CEILING'
      XB=2.4384,2.4892,6.7056,7.3152,4.0132,4.0132 /
&VENT ID='V-120B' SURF_ID='POLE' XB=3.6068,3.6576,0.6096,1.2192,0.8128,0.8128 /
&VENT ID='V-120T' SURF_ID='FLOOR' XB=3.6068,3.6576,0.6096,1.2192,0.9144,0.9144 /
&VENT ID='V-1211B' SURF_ID='CEILING'
      XB=4.2164,4.2672,6.7056,7.3152,3.9624,3.9624 /
&VENT ID='V-1211T' SURF_ID='CEILING'
      XB=4.2164,4.2672,6.7056,7.3152,4.0132,4.0132 /
&VENT ID='V-1212B' SURF_ID='CEILING'
      XB=4.8260,4.8768,6.7056,7.3152,3.9624,3.9624 /
&VENT ID='V-1212T' SURF_ID='CEILING'
      XB=4.8260,4.8768,6.7056,7.3152,4.0132,4.0132 /
&VENT ID='V-121B' SURF_ID='POLE' XB=4.2164,4.2672,0.6096,1.2192,0.8128,0.8128 /
&VENT ID='V-121T' SURF_ID='FLOOR' XB=4.2164,4.2672,0.6096,1.2192,0.9144,0.9144 /
&VENT ID='V-122B' SURF_ID='POLE' XB=4.8260,4.8768,0.6096,1.2192,0.8128,0.8128 /
&VENT ID='V-122T' SURF_ID='FLOOR' XB=4.8260,4.8768,0.6096,1.2192,0.9144,0.9144 /
&VENT ID='V-123B' SURF_ID='POLE' XB=0.0000,0.0508,1.2192,1.9812,0.8128,0.8128 /
&VENT ID='V-123T' SURF_ID='FLOOR' XB=0.0000,0.0508,1.2192,1.9812,0.9144,0.9144 /
&VENT ID='V-124B' SURF_ID='POLE' XB=0.6096,0.6604,1.2192,1.9812,0.8128,0.8128 /
&VENT ID='V-124T' SURF_ID='FLOOR' XB=0.6096,0.6604,1.2192,1.9812,0.9144,0.9144 /
&VENT ID='V-125B' SURF_ID='POLE' XB=1.2192,1.2700,1.2192,1.9812,0.8128,0.8128 /
&VENT ID='V-125T' SURF_ID='FLOOR' XB=1.2192,1.2700,1.2192,1.9812,0.9144,0.9144 /
&VENT ID='V-126B' SURF_ID='POLE' XB=1.8288,1.8796,1.2192,1.9812,0.8128,0.8128 /
&VENT ID='V-126T' SURF_ID='FLOOR' XB=1.8288,1.8796,1.2192,1.9812,0.9144,0.9144 /
&VENT ID='V-127B' SURF_ID='POLE' XB=2.4384,2.4892,1.2192,1.9812,0.8128,0.8128 /
&VENT ID='V-127T' SURF_ID='FLOOR' XB=2.4384,2.4892,1.2192,1.9812,0.9144,0.9144 /
&VENT ID='V-128B' SURF_ID='POLE' XB=2.9972,3.0480,1.2192,1.9812,0.8128,0.8128 /
&VENT ID='V-128T' SURF_ID='FLOOR' XB=2.9972,3.0480,1.2192,1.9812,0.9144,0.9144 /
&VENT ID='V-129B' SURF_ID='POLE' XB=3.6068,3.6576,1.2192,1.9812,0.8128,0.8128 /
&VENT ID='V-129T' SURF_ID='FLOOR' XB=3.6068,3.6576,1.2192,1.9812,0.9144,0.9144 /
&VENT ID='V-12B' SURF_ID='POLE' XB=1.8796,2.4384,0.6096,0.6604,0.8128,0.8128 /
&VENT ID='V-12T' SURF_ID='FLOOR' XB=1.8796,2.4384,0.6096,0.6604,0.9144,0.9144 /
&VENT ID='V-130B' SURF_ID='POLE' XB=4.2164,4.2672,1.2192,1.9812,0.8128,0.8128 /
&VENT ID='V-130T' SURF_ID='FLOOR' XB=4.2164,4.2672,1.2192,1.9812,0.9144,0.9144 /
&VENT ID='V-131B' SURF_ID='POLE' XB=4.8260,4.8768,1.2192,1.9812,0.8128,0.8128 /
&VENT ID='V-131T' SURF_ID='FLOOR' XB=4.8260,4.8768,1.2192,1.9812,0.9144,0.9144 /
&VENT ID='V-134B' SURF_ID='POLE' XB=1.2192,1.2700,1.9812,2.4384,0.8128,0.8128 /
&VENT ID='V-134T' SURF_ID='FLOOR' XB=1.2192,1.2700,1.9812,2.4384,0.9144,0.9144 /
&VENT ID='V-135B' SURF_ID='POLE' XB=1.8288,1.8796,1.9812,2.4384,0.8128,0.8128 /
&VENT ID='V-135T' SURF_ID='FLOOR' XB=1.8288,1.8796,1.9812,2.4384,0.9144,0.9144 /
&VENT ID='V-136B' SURF_ID='POLE' XB=2.4384,2.4892,1.9812,2.4384,0.8128,0.8128 /
&VENT ID='V-136T' SURF_ID='FLOOR' XB=2.4384,2.4892,1.9812,2.4384,0.9144,0.9144 /
&VENT ID='V-137B' SURF_ID='POLE' XB=2.9972,3.0480,1.9812,2.4384,0.8128,0.8128 /
&VENT ID='V-137T' SURF_ID='FLOOR' XB=2.9972,3.0480,1.9812,2.4384,0.9144,0.9144 /
&VENT ID='V-138B' SURF_ID='POLE' XB=3.6068,3.6576,1.9812,2.4384,0.8128,0.8128 /
&VENT ID='V-138T' SURF_ID='FLOOR' XB=3.6068,3.6576,1.9812,2.4384,0.9144,0.9144 /
&VENT ID='V-13B' SURF_ID='POLE' XB=2.4892,2.9972,0.6096,0.6604,0.8128,0.8128 /
&VENT ID='V-13T' SURF_ID='FLOOR' XB=2.4892,2.9972,0.6096,0.6604,0.9144,0.9144 /
&VENT ID='V-143B' SURF_ID='POLE' XB=1.2192,1.2700,2.4384,3.0480,0.8128,0.8128 /
&VENT ID='V-143T' SURF_ID='FLOOR' XB=1.2192,1.2700,2.4384,3.0480,0.9144,0.9144 /
&VENT ID='V-144B' SURF_ID='POLE' XB=1.8288,1.8796,2.4384,3.0480,0.8128,0.8128 /
&VENT ID='V-144T' SURF_ID='FLOOR' XB=1.8288,1.8796,2.4384,3.0480,0.9144,0.9144 /
! ... 232 like lines cut

-- Blender Collection: <Output>
&DEVC ID='BI FLOW C1' QUANTITY='W-VELOCITY' XYZ=3.8100,0.9144,3.8481 /
&DEVC ID='BI FLOW C1.001' QUANTITY='V-VELOCITY' XYZ=3.9624,0.9144,3.9243 /
&DEVC ID='BI FLOW C2' QUANTITY='W-VELOCITY' XYZ=2.2860,3.6576,3.8481 /
&DEVC ID='BI FLOW C2.001' QUANTITY='V-VELOCITY' XYZ=2.4384,3.6576,3.9243 /
&DEVC ID='BI FLOW C3' QUANTITY='W-VELOCITY' XYZ=0.7620,6.4008,3.8481 /
&DEVC ID='BI FLOW C3.001' QUANTITY='V-VELOCITY' XYZ=0.9144,6.4008,3.9243 /
&DEVC ID='BI FLOW P1' QUANTITY='V-VELOCITY' XYZ=3.9624,0.9144,4.8387 /
&DEVC ID='BI FLOW P2' QUANTITY='V-VELOCITY' XYZ=2.4384,3.6576,4.8387 /
&DEVC ID='BI FLOW P3' QUANTITY='V-VELOCITY' XYZ=0.9144,6.4008,4.8387 /
&DEVC ID='BI FLOW SF1' QUANTITY='V-VELOCITY' XYZ=0.9144,0.9144,0.8001 /
&DEVC ID='BI FLOW SF2' QUANTITY='V-VELOCITY' XYZ=0.9144,3.6576,0.8001 /
&DEVC ID='BI FLOW SF3' QUANTITY='V-VELOCITY' XYZ=0.9144,6.4008,0.8001 /
&DEVC ID='CAP' QUANTITY='PRESSURE' XYZ=0.1524,2.5908,1.0668 /
&DEVC ID='CP' QUANTITY='PRESSURE' XYZ=0.1524,2.5908,4.1148 /
&DEVC ID='FAST C1S' QUANTITY='DENSITY' XYZ=4.2672,0.9144,3.9243 SPEC_ID='SOOT'
      UNITS='mg/m3' CONVERSION_FACTOR=1.0E+06 /
&DEVC ID='FAST C1V' QUANTITY='VELOCITY' XYZ=4.2672,0.9144,3.9243 /
&DEVC ID='FAST C2S' QUANTITY='DENSITY' XYZ=2.7432,3.6576,3.9243 SPEC_ID='SOOT'
      UNITS='mg/m3' CONVERSION_FACTOR=1.0E+06 /
&DEVC ID='FAST C2V' QUANTITY='VELOCITY' XYZ=2.7432,3.6576,3.9243 /
&DEVC ID='FAST C3S' QUANTITY='DENSITY' XYZ=1.2192,6.4008,3.9243 SPEC_ID='SOOT'
      UNITS='mg/m3' CONVERSION_FACTOR=1.0E+06 /
&DEVC ID='FAST C3V' QUANTITY='VELOCITY' XYZ=1.2192,6.4008,3.9243 /
&DEVC ID='FAST P1S' QUANTITY='DENSITY' XYZ=4.2672,0.9144,4.8387 SPEC_ID='SOOT'
      UNITS='mg/m3' CONVERSION_FACTOR=1.0E+06 /
&DEVC ID='FAST P1V' QUANTITY='VELOCITY' XYZ=4.2672,0.9144,4.8387 /
&DEVC ID='FAST P2S' QUANTITY='DENSITY' XYZ=2.7432,3.6576,4.8387 SPEC_ID='SOOT'
      UNITS='mg/m3' CONVERSION_FACTOR=1.0E+06 /
&DEVC ID='FAST P2V' QUANTITY='VELOCITY' XYZ=2.7432,3.6576,4.8387 /
&DEVC ID='FAST P3S' QUANTITY='DENSITY' XYZ=1.2192,6.4008,4.8387 SPEC_ID='SOOT'
      UNITS='mg/m3' CONVERSION_FACTOR=1.0E+06 /
&DEVC ID='FAST P3V' QUANTITY='VELOCITY' XYZ=1.2192,6.4008,4.8387 /
&DEVC ID='FAST SF1S' QUANTITY='DENSITY' XYZ=1.2192,0.9144,0.8001 SPEC_ID='SOOT'
      UNITS='mg/m3' CONVERSION_FACTOR=1.0E+06 /
&DEVC ID='FAST SF1V' QUANTITY='VELOCITY' XYZ=1.2192,0.9144,0.8001 /
&DEVC ID='FAST SF2S' QUANTITY='DENSITY' XYZ=1.2192,3.6576,0.8001 SPEC_ID='SOOT'
      UNITS='mg/m3' CONVERSION_FACTOR=1.0E+06 /
&DEVC ID='FAST SF2V' QUANTITY='VELOCITY' XYZ=1.2192,3.6576,0.8001 /
&DEVC ID='FAST SF3S' QUANTITY='DENSITY' XYZ=1.2192,6.4008,0.8001 SPEC_ID='SOOT'
      UNITS='mg/m3' CONVERSION_FACTOR=1.0E+06 /
&DEVC ID='FAST SF3V' QUANTITY='VELOCITY' XYZ=1.2192,6.4008,0.8001 /
&DEVC ID='FM C2S' QUANTITY='DENSITY' XYZ=3.0480,3.6576,3.9243 SPEC_ID='SOOT'
      UNITS='mg/m3' CONVERSION_FACTOR=1.0E+06 /
&DEVC ID='FM P1S' QUANTITY='DENSITY' XYZ=4.5720,0.9144,4.8387 SPEC_ID='SOOT'
      UNITS='mg/m3' CONVERSION_FACTOR=1.0E+06 /
&DEVC ID='FM SF3S' QUANTITY='DENSITY' XYZ=1.5240,6.4008,0.8001 SPEC_ID='SOOT'
      UNITS='mg/m3' CONVERSION_FACTOR=1.0E+06 /
&DEVC ID='HA' QUANTITY='PRESSURE' XYZ=0.1524,2.5908,3.8100 /
&SLCF ID='New SLCF' QUANTITY='PRESSURE' PBX=0.3048 /
&SLCF ID='New SLCF.001' QUANTITY='PRESSURE' PBX=2.4384 /
&SLCF ID='New SLCF.002' QUANTITY='VELOCITY' VECTOR=T PBX=0.3048 /
&SLCF ID='New SLCF.003' QUANTITY='VELOCITY' VECTOR=T PBX=2.4384 /
&SLCF ID='New SLCF.004' QUANTITY='MASS FRACTION' PBX=0.3048 SPEC_ID='SOOT' /
&SLCF ID='New SLCF.005' QUANTITY='MASS FRACTION' PBX=2.4384 SPEC_ID='SOOT' /
&SLCF ID='New SLCF.006' QUANTITY='PRESSURE' PBY=3.6576 /
&SLCF ID='New SLCF.007' QUANTITY='VELOCITY' VECTOR=T PBY=3.6576 /
&SLCF ID='New SLCF.008' QUANTITY='MASS FRACTION' PBY=3.6576 SPEC_ID='SOOT' /
&SLCF ID='New SLCF.009' QUANTITY='PRESSURE' PBZ=0.4572 /
&SLCF ID='New SLCF.010' QUANTITY='PRESSURE' PBZ=2.4384 /
&SLCF ID='New SLCF.011' QUANTITY='PRESSURE' PBZ=4.4196 /
&SLCF ID='New SLCF.012' QUANTITY='VELOCITY' VECTOR=T PBZ=0.4572 /
&SLCF ID='New SLCF.013' QUANTITY='VELOCITY' VECTOR=T PBZ=2.4384 /
&SLCF ID='New SLCF.014' QUANTITY='VELOCITY' VECTOR=T PBZ=4.4196 /
&SLCF ID='New SLCF.015' QUANTITY='MASS FRACTION' PBZ=0.4572 SPEC_ID='SOOT' /
&SLCF ID='New SLCF.016' QUANTITY='MASS FRACTION' PBZ=2.4384 SPEC_ID='SOOT' /
&SLCF ID='New SLCF.017' QUANTITY='MASS FRACTION' PBZ=4.4196 SPEC_ID='SOOT' /
&DEVC ID='POSTS' QUANTITY='PRESSURE' XYZ=1.0668,2.5908,1.8288 /
&DEVC ID='PRES' QUANTITY='PRESSURE' XYZ=0.7620,2.5908,1.8288 /
&DEVC ID='SFP' QUANTITY='PRESSURE' XYZ=0.1524,2.5908,0.7620 /
&DEVC ID='SIMPLEX C1S' QUANTITY='DENSITY' XYZ=3.9624,1.2192,3.9243
      SPEC_ID='SOOT' UNITS='mg/m3' CONVERSION_FACTOR=1.0E+06 /
&DEVC ID='SIMPLEX C1V' QUANTITY='VELOCITY' XYZ=3.9624,1.2192,3.9243 /
&DEVC ID='SIMPLEX C2S' QUANTITY='DENSITY' XYZ=2.4384,3.9624,3.9243
      SPEC_ID='SOOT' UNITS='mg/m3' CONVERSION_FACTOR=1.0E+06 /
&DEVC ID='SIMPLEX C2V' QUANTITY='VELOCITY' XYZ=2.4384,3.9624,3.9243 /
&DEVC ID='SIMPLEX C3S' QUANTITY='DENSITY' XYZ=0.9144,6.7056,3.9243
      SPEC_ID='SOOT' UNITS='mg/m3' CONVERSION_FACTOR=1.0E+06 /
&DEVC ID='SIMPLEX C3V' QUANTITY='VELOCITY' XYZ=0.9144,6.7056,3.9243 /
&DEVC ID='SIMPLEX P1S' QUANTITY='DENSITY' XYZ=3.9624,1.2192,4.8387
      SPEC_ID='SOOT' UNITS='mg/m3' CONVERSION_FACTOR=1.0E+06 /
&DEVC ID='SIMPLEX P1V' QUANTITY='VELOCITY' XYZ=3.9624,1.2192,4.8387 /
&DEVC ID='SIMPLEX P2S' QUANTITY='DENSITY' XYZ=2.4384,3.9624,4.8387
      SPEC_ID='SOOT' UNITS='mg/m3' CONVERSION_FACTOR=1.0E+06 /
&DEVC ID='SIMPLEX P2V' QUANTITY='VELOCITY' XYZ=2.4384,3.9624,4.8387 /
&DEVC ID='SIMPLEX P3S' QUANTITY='DENSITY' XYZ=0.9144,6.7056,4.8387
      SPEC_ID='SOOT' UNITS='mg/m3' CONVERSION_FACTOR=1.0E+06 /
&DEVC ID='SIMPLEX P3V' QUANTITY='VELOCITY' XYZ=0.9144,6.7056,4.8387 /
&DEVC ID='SIMPLEX SF1S' QUANTITY='DENSITY' XYZ=0.9144,1.2192,0.8001
      SPEC_ID='SOOT' UNITS='mg/m3' CONVERSION_FACTOR=1.0E+06 /
&DEVC ID='SIMPLEX SF1V' QUANTITY='VELOCITY' XYZ=0.9144,1.2192,0.8001 /
&DEVC ID='SIMPLEX SF2S' QUANTITY='DENSITY' XYZ=0.9144,3.9624,0.8001
      SPEC_ID='SOOT' UNITS='mg/m3' CONVERSION_FACTOR=1.0E+06 /
&DEVC ID='SIMPLEX SF2V' QUANTITY='VELOCITY' XYZ=0.9144,3.9624,0.8001 /
&DEVC ID='SIMPLEX SF3S' QUANTITY='DENSITY' XYZ=0.9144,6.7056,0.8001
      SPEC_ID='SOOT' UNITS='mg/m3' CONVERSION_FACTOR=1.0E+06 /
&DEVC ID='SIMPLEX SF3V' QUANTITY='VELOCITY' XYZ=0.9144,6.7056,0.8001 /
&DEVC ID='T C1' QUANTITY='THERMOCOUPLE' XYZ=3.9624,0.9144,3.9243 /
&DEVC ID='T C2' QUANTITY='THERMOCOUPLE' XYZ=2.4384,3.6576,3.9243 /
&DEVC ID='T C3' QUANTITY='THERMOCOUPLE' XYZ=0.9144,6.4008,3.9243 /
&DEVC ID='T P1' QUANTITY='THERMOCOUPLE' XYZ=3.9624,0.9144,4.8387 /
&DEVC ID='T P2' QUANTITY='THERMOCOUPLE' XYZ=2.4384,3.6576,4.8387 /
&DEVC ID='T P3' QUANTITY='THERMOCOUPLE' XYZ=0.9144,6.4008,4.8387 /
&DEVC ID='T SF1' QUANTITY='THERMOCOUPLE' XYZ=0.9144,0.9144,0.8001 /
&DEVC ID='T SF2' QUANTITY='THERMOCOUPLE' XYZ=0.9144,3.6576,0.8001 /
&DEVC ID='T SF3' QUANTITY='THERMOCOUPLE' XYZ=0.9144,6.4008,0.8001 /
&DEVC ID='VIEW C1S' QUANTITY='DENSITY' XYZ=3.9624,0.6096,3.9243 SPEC_ID='SOOT'
      UNITS='mg/m3' CONVERSION_FACTOR=1.0E+06 /
&DEVC ID='VIEW C1V' QUANTITY='VELOCITY' XYZ=3.9624,0.6096,3.9243 /
&DEVC ID='VIEW C2S' QUANTITY='DENSITY' XYZ=2.4384,3.3528,3.9243 SPEC_ID='SOOT'
      UNITS='mg/m3' CONVERSION_FACTOR=1.0E+06 /
&DEVC ID='VIEW C2V' QUANTITY='VELOCITY' XYZ=2.4384,3.3528,3.9243 /
&DEVC ID='VIEW C3S' QUANTITY='DENSITY' XYZ=0.9144,6.0960,3.9243 SPEC_ID='SOOT'
      UNITS='mg/m3' CONVERSION_FACTOR=1.0E+06 /
&DEVC ID='VIEW C3V' QUANTITY='VELOCITY' XYZ=0.9144,6.0960,3.9243 /
&DEVC ID='VIEW P1S' QUANTITY='DENSITY' XYZ=3.9624,0.6096,4.8387 SPEC_ID='SOOT'
      UNITS='mg/m3' CONVERSION_FACTOR=1.0E+06 /
&DEVC ID='VIEW P1V' QUANTITY='VELOCITY' XYZ=3.9624,0.6096,4.8387 /
&DEVC ID='VIEW P2S' QUANTITY='DENSITY' XYZ=2.4384,3.3528,4.8387 SPEC_ID='SOOT'
      UNITS='mg/m3' CONVERSION_FACTOR=1.0E+06 /
&DEVC ID='VIEW P2V' QUANTITY='VELOCITY' XYZ=2.4384,3.3528,4.8387 /
&DEVC ID='VIEW P3S' QUANTITY='DENSITY' XYZ=0.9144,6.0960,4.8387 SPEC_ID='SOOT'
      UNITS='mg/m3' CONVERSION_FACTOR=1.0E+06 /
&DEVC ID='VIEW P3V' QUANTITY='VELOCITY' XYZ=0.9144,6.0960,4.8387 /
&DEVC ID='VIEW SF1S' QUANTITY='DENSITY' XYZ=0.9144,0.6096,0.8001 SPEC_ID='SOOT'
      UNITS='mg/m3' CONVERSION_FACTOR=1.0E+06 /
&DEVC ID='VIEW SF1V' QUANTITY='VELOCITY' XYZ=0.9144,0.6096,0.8001 /
&DEVC ID='VIEW SF2S' QUANTITY='DENSITY' XYZ=0.9144,3.3528,0.8001 SPEC_ID='SOOT'
      UNITS='mg/m3' CONVERSION_FACTOR=1.0E+06 /
&DEVC ID='VIEW SF2V' QUANTITY='VELOCITY' XYZ=0.9144,3.3528,0.8001 /
&DEVC ID='VIEW SF3S' QUANTITY='DENSITY' XYZ=0.9144,6.0960,0.8001 SPEC_ID='SOOT'
      UNITS='mg/m3' CONVERSION_FACTOR=1.0E+06 /
&DEVC ID='VIEW SF3V' QUANTITY='VELOCITY' XYZ=0.9144,6.0960,0.8001 /

&TAIL /
